Version 4
SHEET 1 2756 1020
WIRE -16 -176 -288 -176
WIRE -288 -64 -288 -176
WIRE -16 16 -16 -176
WIRE -112 80 -128 80
WIRE -64 80 -112 80
WIRE -112 224 -112 80
WIRE -112 224 -192 224
FLAG -288 16 0
FLAG -16 112 0
FLAG -192 144 0
SYMBOL njf -64 16 R0
WINDOW 0 132 56 Right 2
WINDOW 3 158 82 Right 2
SYMATTR InstName J1
SYMATTR Value J201
SYMBOL voltage -288 -80 R0
WINDOW 123 0 0 Left 0
WINDOW 39 0 0 Left 0
WINDOW 0 36 39 Left 2
WINDOW 3 32 8 Left 2
SYMATTR InstName V2
SYMATTR Value -5
SYMBOL voltage -192 128 R0
WINDOW 123 0 0 Left 0
WINDOW 39 0 0 Left 0
WINDOW 0 36 39 Left 2
WINDOW 3 32 8 Left 2
SYMATTR InstName V1
SYMATTR Value 10V
TEXT -672 -192 Left 2 !.tran 10ms
TEXT -672 -112 Left 2 !.include 74hc.lib
TEXT 224 -104 Left 2 ;+100V overvoltage, leakage is still very low. 100pA\n-10V (==gate), jfet conducts -1mA.
