Version 4
SHEET 1 1896 680
WIRE 256 -32 0 -32
WIRE 672 -32 416 -32
WIRE 912 -32 672 -32
WIRE 0 32 0 -32
WIRE 672 48 672 -32
WIRE 912 48 912 -32
WIRE 336 80 336 -32
WIRE 384 80 336 80
WIRE 496 96 448 96
WIRE 848 96 496 96
WIRE 336 112 256 112
WIRE 384 112 336 112
WIRE 672 192 672 144
WIRE 912 192 912 144
WIRE -64 224 -192 224
WIRE 912 288 672 288
WIRE -64 304 -192 304
WIRE 384 336 336 336
WIRE 496 336 496 96
WIRE 496 336 448 336
WIRE 672 368 672 288
WIRE 736 368 672 368
WIRE 752 368 736 368
WIRE -64 384 -192 384
WIRE 672 416 672 368
FLAG -192 464 0
FLAG -64 384 VEE2
FLAG -64 224 VCC2
FLAG 672 496 0
FLAG 416 64 VEE2
FLAG 416 128 VCC2
FLAG 736 368 VOUT
FLAG -64 304 VGND
FLAG 0 112 VGND
FLAG 336 192 VGND
FLAG 608 240 VEE2
FLAG 256 112 VGND
FLAG 848 240 VCC2
SYMBOL voltage 0 16 R0
WINDOW 123 0 0 Left 0
WINDOW 39 0 0 Left 0
WINDOW 3 24 44 Left 2
SYMATTR Value SINE(0 10 50)
SYMATTR InstName VIN
SYMBOL voltage -192 368 R0
WINDOW 0 54 29 Left 2
WINDOW 3 50 56 Left 2
WINDOW 123 0 0 Left 0
WINDOW 39 0 0 Left 0
SYMATTR InstName V4
SYMATTR Value 50
SYMBOL voltage -192 288 R0
WINDOW 0 54 29 Left 2
WINDOW 3 50 56 Left 2
WINDOW 123 0 0 Left 0
WINDOW 39 0 0 Left 0
SYMATTR InstName V1
SYMATTR Value 15
SYMBOL res 656 400 R0
SYMATTR InstName R1
SYMATTR Value 10k
SYMBOL res 352 -48 R90
WINDOW 0 0 56 VBottom 2
WINDOW 3 32 56 VTop 2
SYMATTR InstName R3
SYMATTR Value 10k
SYMBOL res 432 -48 R90
WINDOW 0 0 56 VBottom 2
WINDOW 3 32 56 VTop 2
SYMATTR InstName R4
SYMATTR Value 10k
SYMBOL voltage -192 208 R0
WINDOW 0 54 29 Left 2
WINDOW 3 50 56 Left 2
WINDOW 123 0 0 Left 0
WINDOW 39 0 0 Left 0
SYMATTR InstName V2
SYMATTR Value 15
SYMBOL OpAmps\\OP07 416 160 M180
SYMATTR InstName U1
SYMBOL cap 448 320 R90
WINDOW 0 0 32 VBottom 2
WINDOW 3 32 32 VTop 2
SYMATTR InstName C1
SYMATTR Value 20p
SYMBOL res 320 96 R0
SYMATTR InstName R5
SYMATTR Value 10k
SYMBOL pnp 848 48 R0
SYMATTR InstName Q3
SYMATTR Value 2N3906
SYMBOL npn 848 192 R0
SYMATTR InstName Q4
SYMATTR Value 2N3904
TEXT -336 -112 Left 2 !;dc V1 0 10 0.01
TEXT 304 448 Left 2 !.tran 0.1
TEXT 888 -128 Left 2 ;Doesn't work. trying to make something working with negative voltage
