Version 4
SHEET 1 984 712
WIRE 880 -192 704 -192
WIRE 816 -64 768 -64
WIRE -128 -32 -144 -32
WIRE 224 -32 -64 -32
WIRE 816 -16 816 -64
WIRE 880 -16 816 -16
WIRE 160 16 144 16
WIRE 224 16 224 -32
WIRE -144 80 -144 -32
WIRE -48 80 -80 80
WIRE 144 96 144 16
WIRE 224 96 224 16
WIRE 704 96 704 -16
WIRE 144 160 144 96
WIRE 160 160 144 160
WIRE -528 176 -608 176
WIRE -240 176 -368 176
WIRE -144 176 -144 80
WIRE -144 176 -160 176
WIRE -128 176 -144 176
WIRE 224 176 224 96
WIRE 256 176 224 176
WIRE 704 176 704 160
WIRE 704 176 256 176
WIRE -608 192 -608 176
WIRE -528 192 -528 176
WIRE -48 192 -48 80
WIRE -48 192 -64 192
WIRE 64 192 -48 192
WIRE 160 192 144 192
WIRE 704 192 704 176
WIRE -128 208 -160 208
WIRE -368 224 -368 176
WIRE -160 224 -160 208
WIRE 144 288 144 192
WIRE 224 288 224 176
WIRE 704 400 704 256
WIRE 880 400 880 64
WIRE 880 400 816 400
WIRE 816 448 816 400
WIRE 816 448 768 448
WIRE 496 512 416 512
WIRE 416 528 416 512
WIRE 496 528 496 512
WIRE 880 576 704 576
FLAG -368 304 0
FLAG -528 192 0
FLAG 256 176 VOUT
FLAG -608 96 VCC
FLAG 192 144 VCC
FLAG -608 272 VEE
FLAG 192 208 VEE
FLAG 64 160 0
FLAG -96 160 VCC
FLAG -96 224 VEE
FLAG -160 224 0
FLAG 496 528 0
FLAG 416 432 VCC2
FLAG 416 608 VEE2
FLAG 704 -192 VCC2
FLAG 704 576 VEE2
SYMBOL voltage -368 208 R0
WINDOW 123 0 0 Left 0
WINDOW 39 0 0 Left 0
WINDOW 3 -40 200 Left 2
SYMATTR Value PULSE(-0.1 0.1 0 100n 100n 5ms 10ms 7)
SYMATTR InstName VIN
SYMBOL OpAmps\\OP07 192 112 R0
WINDOW 0 40 50 Left 2
SYMATTR InstName U1
SYMBOL voltage -608 80 R0
WINDOW 123 0 0 Left 0
WINDOW 39 0 0 Left 0
WINDOW 3 40 42 Left 2
SYMATTR Value 18
SYMATTR InstName V2
SYMBOL voltage -608 176 R0
WINDOW 123 0 0 Left 0
WINDOW 39 0 0 Left 0
WINDOW 0 36 39 Left 2
SYMATTR InstName V3
SYMATTR Value 18
SYMBOL res 160 144 R90
WINDOW 0 -23 59 VBottom 2
WINDOW 3 -25 66 VTop 2
SYMATTR InstName R1
SYMATTR Value 100k
SYMBOL res 160 176 R90
WINDOW 0 53 57 VBottom 2
WINDOW 3 51 63 VTop 2
SYMATTR InstName R3
SYMATTR Value 100k
SYMBOL res 240 272 R90
WINDOW 0 0 56 VBottom 2
WINDOW 3 32 56 VTop 2
SYMATTR InstName R5
SYMATTR Value 12.5k
SYMBOL OpAmps\\OP07 -96 128 R0
WINDOW 0 40 50 Left 2
SYMATTR InstName U2
SYMBOL cap -64 -48 R90
WINDOW 0 0 32 VBottom 2
WINDOW 3 32 32 VTop 2
SYMATTR InstName C1
SYMATTR Value 2n
SYMBOL res -144 160 R90
WINDOW 0 0 56 VBottom 2
WINDOW 3 32 56 VTop 2
SYMATTR InstName R4
SYMATTR Value 10k
SYMBOL res 240 80 R90
WINDOW 0 0 56 VBottom 2
WINDOW 3 32 56 VTop 2
SYMATTR InstName R2
SYMATTR Value 10k
SYMBOL cap 224 0 R90
WINDOW 0 0 32 VBottom 2
WINDOW 3 32 32 VTop 2
SYMATTR InstName C3
SYMATTR Value 100p
SYMBOL cap -80 64 R90
WINDOW 0 0 32 VBottom 2
WINDOW 3 32 32 VTop 2
SYMATTR InstName C2
SYMATTR Value 200p
SYMBOL pnp 768 -16 R180
SYMATTR InstName Q1
SYMBOL pnp 816 -16 M180
SYMATTR InstName Q3
SYMBOL res 688 -208 R0
SYMATTR InstName R6
SYMATTR Value 1k
SYMBOL res 864 -208 R0
SYMATTR InstName R7
SYMATTR Value 1k
SYMBOL voltage 416 416 R0
WINDOW 123 0 0 Left 0
WINDOW 39 0 0 Left 0
WINDOW 3 42 41 Left 2
SYMATTR Value 19
SYMATTR InstName V1
SYMBOL voltage 416 512 R0
WINDOW 123 0 0 Left 0
WINDOW 39 0 0 Left 0
WINDOW 0 36 39 Left 2
SYMATTR InstName V4
SYMATTR Value 18
SYMBOL npn 816 400 R0
SYMATTR InstName Q2
SYMBOL npn 768 400 M0
SYMATTR InstName Q4
SYMBOL res 864 -32 R0
SYMATTR InstName R8
SYMATTR Value 100k
SYMBOL res 688 480 R0
SYMATTR InstName R9
SYMATTR Value 1k
SYMBOL res 864 480 R0
SYMATTR InstName R10
SYMATTR Value 1k
SYMBOL zener 720 160 R180
WINDOW 0 24 64 Left 2
WINDOW 3 44 32 Left 2
SYMATTR InstName D1
SYMATTR Value BZX84C6V2L
SYMBOL zener 720 256 R180
WINDOW 0 24 64 Left 2
WINDOW 3 44 32 Left 2
SYMATTR InstName D2
SYMATTR Value BZX84C6V2L
TEXT -424 336 Left 2 !;dc V1 0 10 0.01
TEXT -440 368 Left 2 !.tran 0.1
TEXT -488 -48 Left 2 ;Bootstrapped integrator.
