Version 4
SHEET 1 1904 680
WIRE 720 -112 304 -112
WIRE 304 48 304 -112
WIRE 528 48 496 48
WIRE 1008 64 1008 48
WIRE 1008 64 928 64
WIRE -192 80 -272 80
WIRE 192 80 -32 80
WIRE 304 80 192 80
WIRE -272 96 -272 80
WIRE -192 96 -192 80
WIRE -32 96 -32 80
WIRE 720 112 720 -112
WIRE 720 112 496 112
WIRE 1008 112 1008 64
WIRE 1008 112 720 112
WIRE 1008 240 1008 112
FLAG -32 176 0
FLAG -192 96 0
FLAG -272 0 VCC
FLAG -272 176 VEE
FLAG 400 -32 VCC
FLAG 528 48 FET_DRIVE
FLAG 1008 64 FET_RESET
FLAG 192 80 FET_SET
FLAG 400 192 VCC
SYMBOL voltage -32 80 R0
WINDOW 123 0 0 Left 0
WINDOW 39 0 0 Left 0
WINDOW 3 -157 127 Left 2
SYMATTR Value PULSE(0 5 2ms 10ns 10ns 0.5ms 1ms 7)
SYMATTR InstName VIN
SYMBOL voltage -272 -16 R0
WINDOW 123 0 0 Left 0
WINDOW 39 0 0 Left 0
WINDOW 3 48 40 Left 2
SYMATTR Value 5
SYMATTR InstName V2
SYMBOL voltage -272 80 R0
WINDOW 123 0 0 Left 0
WINDOW 39 0 0 Left 0
WINDOW 0 36 39 Left 2
SYMATTR InstName V3
SYMATTR Value 0
SYMBOL 74hc74 400 -32 R0
SYMATTR InstName U1
SYMBOL xcomp_x11 480 336 R0
SYMATTR InstName U2
SYMATTR Value LM311
TEXT 136 320 Left 2 !.tran 0.01
TEXT 136 352 Left 2 !.include 74hc.lib
TEXT -520 -40 Left 0 !.include LM311.301
TEXT 1040 -112 Left 1 ;So Fet_RESET is just a pulse. and Fet_set is also just a pulse. nice. notice \\n
TEXT 1048 -88 Left 1 ;notice that the ramp up on RC is just the same as the sense resistor ramp.
