Version 4
SHEET 1 1452 940
WIRE 384 80 320 80
WIRE 528 96 448 96
WIRE 608 96 528 96
WIRE 624 96 608 96
WIRE 384 112 48 112
WIRE 48 128 48 112
WIRE 528 160 528 96
WIRE 608 224 608 96
WIRE 320 304 320 80
WIRE 528 304 528 224
WIRE 528 304 320 304
WIRE 608 304 528 304
WIRE 608 384 320 384
WIRE 608 464 608 384
WIRE 320 656 320 384
WIRE 384 656 320 656
WIRE -112 672 -192 672
WIRE 608 672 608 544
WIRE 608 672 448 672
WIRE 624 672 608 672
WIRE -192 688 -192 672
WIRE -112 688 -112 672
WIRE 384 688 176 688
FLAG 48 208 0
FLAG -112 688 0
FLAG -192 592 VCC
FLAG 416 64 VCC
FLAG -192 768 VEE
FLAG 416 128 VEE
FLAG 416 640 VCC
FLAG 416 704 VEE
FLAG 176 768 0
SYMBOL voltage 48 112 R0
WINDOW 123 0 0 Left 0
WINDOW 39 0 0 Left 0
WINDOW 3 24 44 Left 2
SYMATTR Value SINE(7.7 0.1 50)
SYMATTR InstName VIN
SYMBOL voltage -192 576 R0
WINDOW 123 0 0 Left 0
WINDOW 39 0 0 Left 0
WINDOW 3 38 43 Left 2
SYMATTR Value 15
SYMATTR InstName V2
SYMBOL voltage -192 672 R0
WINDOW 123 0 0 Left 0
WINDOW 39 0 0 Left 0
WINDOW 0 36 39 Left 2
SYMATTR InstName V3
SYMATTR Value 15
SYMBOL res 624 320 R180
WINDOW 0 36 76 Left 2
WINDOW 3 36 40 Left 2
SYMATTR InstName R2
SYMATTR Value 25k
SYMBOL OpAmps\\OP27 416 32 R0
SYMATTR InstName U2
SYMBOL OpAmps\\OP27 416 608 R0
SYMATTR InstName U1
SYMBOL res 624 400 R180
WINDOW 0 36 76 Left 2
WINDOW 3 36 40 Left 2
SYMATTR InstName R1
SYMATTR Value 12.5k
SYMBOL res 624 560 R180
WINDOW 0 36 76 Left 2
WINDOW 3 36 40 Left 2
SYMATTR InstName R4
SYMATTR Value 25k
SYMBOL voltage 176 672 R0
WINDOW 123 0 0 Left 0
WINDOW 39 0 0 Left 0
WINDOW 3 38 43 Left 2
SYMATTR Value 7
SYMATTR InstName V1
SYMBOL cap 512 160 R0
SYMATTR InstName C1
SYMATTR Value 10n
TEXT -72 264 Left 2 !;dc V1 0 10 0.01
TEXT 136 320 Left 2 !.tran 0.1
TEXT 904 -72 Left 2 ;Use bias resistor. 50ohm for +5uA bias current.
