Version 4
SHEET 1 1440 868
WIRE -112 -64 -160 -64
WIRE -160 0 -160 -64
WIRE -112 0 -160 0
WIRE -48 0 -48 -64
WIRE -160 80 -160 0
WIRE -48 80 -48 0
WIRE -48 80 -80 80
WIRE -240 176 -368 176
WIRE -160 176 -160 80
WIRE -128 176 -160 176
WIRE -48 192 -48 80
WIRE -48 192 -64 192
WIRE 64 192 -48 192
WIRE -128 208 -160 208
WIRE -368 224 -368 176
WIRE -160 304 -160 208
WIRE -240 624 -320 624
WIRE -320 640 -320 624
WIRE -240 640 -240 624
FLAG -368 304 0
FLAG -240 640 0
FLAG -320 544 VCC
FLAG -320 720 VEE
FLAG -96 160 VCC
FLAG -96 224 VEE
FLAG -160 384 0
SYMBOL voltage -368 208 R0
WINDOW 123 0 0 Left 0
WINDOW 39 0 0 Left 0
WINDOW 3 -576 177 Left 2
SYMATTR Value PULSE(3.001 2.999 0 100n 100n 0.2ms 0.4ms 7)
SYMATTR InstName VIN
SYMBOL voltage -320 528 R0
WINDOW 123 0 0 Left 0
WINDOW 39 0 0 Left 0
WINDOW 3 40 42 Left 2
SYMATTR Value 15
SYMATTR InstName V2
SYMBOL voltage -320 624 R0
WINDOW 123 0 0 Left 0
WINDOW 39 0 0 Left 0
WINDOW 0 36 39 Left 2
SYMATTR InstName V3
SYMATTR Value 15
SYMBOL res -144 160 R90
WINDOW 0 0 56 VBottom 2
WINDOW 3 32 56 VTop 2
SYMATTR InstName R4
SYMATTR Value 100R
SYMBOL OpAmps\\OP37 -96 128 R0
SYMATTR InstName U2
SYMBOL res -64 64 R90
WINDOW 0 0 56 VBottom 2
WINDOW 3 32 56 VTop 2
SYMATTR InstName R2
SYMATTR Value 10k
SYMBOL diode -48 -16 R90
WINDOW 0 0 32 VBottom 2
WINDOW 3 32 32 VTop 2
SYMATTR InstName D1
SYMBOL diode -112 -48 R270
WINDOW 0 32 32 VTop 2
WINDOW 3 0 32 VBottom 2
SYMATTR InstName D2
SYMBOL voltage -160 288 R0
WINDOW 123 0 0 Left 0
WINDOW 39 0 0 Left 0
WINDOW 3 -48 110 Left 2
SYMATTR Value 3V
SYMATTR InstName VIN1
TEXT -552 344 Left 2 !;dc V1 0 10 0.01
TEXT -600 456 Left 2 !.tran 3ms
