Version 4
SHEET 1 1904 680
WIRE 624 -32 608 -32
WIRE 528 48 496 48
WIRE 608 48 608 -32
WIRE 608 48 528 48
WIRE 688 48 688 -32
WIRE 848 48 688 48
WIRE 1008 64 928 64
WIRE -192 80 -272 80
WIRE 192 80 -32 80
WIRE 304 80 192 80
WIRE 848 80 800 80
WIRE -272 96 -272 80
WIRE -192 96 -192 80
WIRE -32 96 -32 80
WIRE 400 240 400 192
WIRE 1008 240 1008 64
WIRE 1008 240 400 240
FLAG -32 176 0
FLAG -192 96 0
FLAG -272 0 VCC
FLAG 304 48 VCC
FLAG -272 176 VEE
FLAG 400 -32 VCC
FLAG 688 112 0
FLAG 880 16 VCC
FLAG 880 112 VEE
FLAG 864 112 0
FLAG 928 -16 VCC
FLAG 800 160 0
FLAG 528 48 FET_DRIVE
FLAG 1008 64 FET_RESET
FLAG 192 80 FET_SET
SYMBOL voltage -32 80 R0
WINDOW 123 0 0 Left 0
WINDOW 39 0 0 Left 0
WINDOW 3 -157 127 Left 2
SYMATTR Value PULSE(0 5 2ms 10ns 10ns 0.5ms 1ms 7)
SYMATTR InstName VIN
SYMBOL voltage -272 -16 R0
WINDOW 123 0 0 Left 0
WINDOW 39 0 0 Left 0
WINDOW 3 48 40 Left 2
SYMATTR Value 5
SYMATTR InstName V2
SYMBOL voltage -272 80 R0
WINDOW 123 0 0 Left 0
WINDOW 39 0 0 Left 0
WINDOW 0 36 39 Left 2
SYMATTR InstName V3
SYMATTR Value 0
SYMBOL 74HC\\74hc74 400 -32 R0
SYMATTR InstName U1
SYMBOL res 704 32 R90
WINDOW 0 0 56 VBottom 2
WINDOW 3 32 56 VTop 2
SYMATTR InstName R1
SYMATTR Value 10k
SYMBOL cap 672 48 R0
SYMATTR InstName C1
SYMATTR Value 200n
SYMBOL Comparators\\LT1011 880 64 R0
SYMATTR InstName U2
SYMBOL res 912 -32 R0
SYMATTR InstName R2
SYMATTR Value 5k
SYMBOL voltage 800 64 R0
WINDOW 0 -32 56 VBottom 2
WINDOW 3 -60 93 VTop 2
WINDOW 123 0 0 Left 0
WINDOW 39 0 0 Left 0
SYMATTR InstName V1
SYMATTR Value 2.5
SYMBOL diode 688 -48 R90
WINDOW 0 0 32 VBottom 2
WINDOW 3 32 32 VTop 2
SYMATTR InstName D1
TEXT 136 320 Left 2 !.tran 0.01
TEXT 136 352 Left 2 !.include 74hc.lib
TEXT 1040 -112 Left 1 ;So Fet_RESET is just a pulse. and Fet_set is also just a pulse. nice. notice \\n
TEXT 1048 -88 Left 1 ;notice that the ramp up on RC is just the same as the sense resistor ramp.
