Version 4
SHEET 1 1648 868
WIRE -784 -384 -864 -384
WIRE -704 -384 -784 -384
WIRE -384 -384 -400 -384
WIRE -864 -272 -864 -304
WIRE -400 -272 -400 -384
WIRE -400 -272 -864 -272
WIRE -384 -272 -400 -272
WIRE -320 -256 -320 -384
WIRE -240 -256 -320 -256
WIRE -704 -240 -704 -384
WIRE -384 -240 -704 -240
WIRE -864 -224 -864 -272
WIRE -704 -224 -704 -240
WIRE -928 -176 -1136 -176
WIRE -640 -176 -656 -176
WIRE -528 -176 -640 -176
WIRE -240 -176 -240 -256
WIRE -240 -176 -448 -176
WIRE -1136 -128 -1136 -176
WIRE -864 -96 -864 -128
WIRE -816 -96 -864 -96
WIRE -704 -96 -704 -128
WIRE -704 -96 -816 -96
WIRE -816 -80 -816 -96
WIRE -1056 304 -1136 304
WIRE -1136 320 -1136 304
WIRE -1056 320 -1056 304
FLAG -1056 320 0
FLAG -1136 224 VCC
FLAG -1136 400 VEE
FLAG -784 -384 VCC
FLAG -1136 -48 0
FLAG -352 -288 VCC
FLAG -352 -224 VEE
FLAG -816 0 VEE
FLAG -528 -96 0
SYMBOL voltage -1136 208 R0
WINDOW 123 0 0 Left 0
WINDOW 39 0 0 Left 0
WINDOW 3 40 42 Left 2
SYMATTR Value 15
SYMATTR InstName V2
SYMBOL voltage -1136 304 R0
WINDOW 123 0 0 Left 0
WINDOW 39 0 0 Left 0
WINDOW 0 36 39 Left 2
SYMATTR InstName V3
SYMATTR Value 15
SYMBOL bi -816 -80 R0
SYMATTR InstName B1
SYMATTR Value I=0.5mA
SYMBOL res -880 -400 R0
SYMATTR InstName R16
SYMATTR Value 1k
SYMBOL npn -928 -224 R0
SYMATTR InstName Q8
SYMBOL npn -640 -224 M0
SYMATTR InstName Q9
SYMBOL voltage -1136 -144 R0
WINDOW 123 0 0 Left 0
WINDOW 39 0 0 Left 0
WINDOW 3 -318 217 Left 2
SYMATTR Value PULSE(0.2 -0.2 0 100n 100n 2.5ms 5ms 7)
SYMATTR InstName VIN1
SYMBOL OpAmps\\OP07 -352 -320 R0
SYMATTR InstName U3
SYMBOL cap -320 -400 R90
WINDOW 0 0 32 VBottom 2
WINDOW 3 32 32 VTop 2
SYMATTR InstName C5
SYMATTR Value 100p
SYMBOL res -432 -192 R90
WINDOW 0 0 56 VBottom 2
WINDOW 3 32 56 VTop 2
SYMATTR InstName R1
SYMATTR Value 10k
SYMBOL res -512 -80 R180
WINDOW 0 36 76 Left 2
WINDOW 3 36 40 Left 2
SYMATTR InstName R2
SYMATTR Value 10k
TEXT -1416 232 Left 2 !;dc V1 0 10 0.01
TEXT -1432 264 Left 2 !.tran 0.1
TEXT -488 -48 Left 2 ;Bootstrapped integrator.
