Version 4
SHEET 1 1212 680
WIRE -64 32 -144 32
WIRE -144 48 -144 32
WIRE -64 48 -64 32
WIRE 384 112 48 112
WIRE 592 112 464 112
WIRE 48 128 48 112
WIRE 704 160 592 160
FLAG 48 208 0
FLAG -64 48 0
FLAG -144 -48 VCC
FLAG -144 128 VEE
FLAG 592 208 0
FLAG 704 160 VEE
FLAG 544 192 VCC
SYMBOL voltage 48 112 R0
WINDOW 123 0 0 Left 0
WINDOW 39 0 0 Left 0
WINDOW 3 24 44 Left 2
SYMATTR Value SINE(0 0.5 50)
SYMATTR InstName VIN
SYMBOL voltage -144 -64 R0
WINDOW 123 0 0 Left 0
WINDOW 39 0 0 Left 0
WINDOW 3 38 43 Left 2
SYMATTR Value 15
SYMATTR InstName V2
SYMBOL voltage -144 32 R0
WINDOW 123 0 0 Left 0
WINDOW 39 0 0 Left 0
WINDOW 0 36 39 Left 2
SYMATTR InstName V3
SYMATTR Value 15
SYMBOL res 480 96 R90
WINDOW 0 0 56 VBottom 2
WINDOW 3 32 56 VTop 2
SYMATTR InstName R1
SYMATTR Value 10k
SYMBOL nmos4 544 112 R0
SYMATTR InstName M1
TEXT -72 264 Left 2 !;dc V1 0 10 0.01
TEXT 136 320 Left 2 !.tran 0.1
TEXT 520 16 Left 2 ;It's not vee sd5400 that prevents negative conductiongfddf\nsdf
