Version 4
SHEET 1 880 680
WIRE 576 48 496 48
WIRE 608 48 576 48
WIRE -192 80 -272 80
WIRE 304 80 -32 80
WIRE -272 96 -272 80
WIRE -192 96 -192 80
WIRE -32 96 -32 80
WIRE 576 112 496 112
WIRE 608 112 576 112
FLAG -32 176 0
FLAG -192 96 0
FLAG -272 0 VCC
FLAG 304 48 VCC
FLAG -272 176 VEE
FLAG 576 48 Q
FLAG 576 112 ~Q
FLAG 400 -32 VCC
FLAG 400 192 VCC
SYMBOL voltage -32 80 R0
WINDOW 123 0 0 Left 0
WINDOW 39 0 0 Left 0
WINDOW 3 -157 127 Left 2
SYMATTR Value PULSE(0 5 0 10ns 10ns 0.5ms 1ms 7)
SYMATTR InstName VIN
SYMBOL voltage -272 -16 R0
WINDOW 123 0 0 Left 0
WINDOW 39 0 0 Left 0
WINDOW 3 48 40 Left 2
SYMATTR Value 5
SYMATTR InstName V2
SYMBOL voltage -272 80 R0
WINDOW 123 0 0 Left 0
WINDOW 39 0 0 Left 0
WINDOW 0 36 39 Left 2
SYMATTR InstName V3
SYMATTR Value 0
SYMBOL 74HC\\74hc74 400 -32 R0
SYMATTR InstName U1
TEXT 136 320 Left 2 !.tran 0.01
TEXT 136 352 Left 2 !.include 74hc.lib
