Version 4
SHEET 1 1904 680
WIRE 448 48 208 48
WIRE 592 64 512 64
WIRE -192 80 -272 80
WIRE 448 80 -32 80
WIRE -272 96 -272 80
WIRE -192 96 -192 80
WIRE -32 96 -32 80
FLAG -32 176 0
FLAG -192 96 0
FLAG -272 0 VCC
FLAG -272 176 VEE
FLAG 480 32 VCC
FLAG 480 96 VEE
FLAG 512 80 0
FLAG 592 -16 VCC
FLAG 208 128 0
SYMBOL voltage -32 80 R0
WINDOW 123 0 0 Left 0
WINDOW 39 0 0 Left 0
WINDOW 3 -157 127 Left 2
SYMATTR Value PULSE(2.4 2.6 2ms 10ns 10ns 0.5ms 1ms 7)
SYMATTR InstName VIN
SYMBOL voltage -272 -16 R0
WINDOW 123 0 0 Left 0
WINDOW 39 0 0 Left 0
WINDOW 3 48 40 Left 2
SYMATTR Value 5
SYMATTR InstName V2
SYMBOL voltage -272 80 R0
WINDOW 123 0 0 Left 0
WINDOW 39 0 0 Left 0
WINDOW 0 36 39 Left 2
SYMATTR InstName V3
SYMATTR Value 0
SYMBOL xcomp_x11 480 0 R0
SYMATTR InstName U2
SYMATTR Value LM311
SYMBOL res 576 -32 R0
SYMATTR InstName R1
SYMATTR Value 3.3k
SYMBOL voltage 208 32 R0
WINDOW 123 0 0 Left 0
WINDOW 39 0 0 Left 0
WINDOW 3 -157 127 Left 2
SYMATTR Value 2.5
SYMATTR InstName VIN1
TEXT 136 320 Left 2 !.tran 0.01
TEXT -160 -344 Left 2 !.include 74hc.lib
TEXT -160 -376 Left 2 !.include LM311.301
TEXT 136 -424 Left 2 ;Instead of lm311. just use lt1011 as same
