Version 4
SHEET 1 2756 2104
WIRE 1808 -576 1792 -576
WIRE 1264 -560 1248 -560
WIRE -672 -544 -752 -544
WIRE 672 -544 656 -544
WIRE -752 -528 -752 -544
WIRE 128 -528 112 -528
WIRE -352 -512 -384 -512
WIRE 1792 -464 1792 -576
WIRE 1808 -464 1792 -464
WIRE 1248 -448 1248 -560
WIRE 1264 -448 1248 -448
WIRE 1888 -448 1888 -576
WIRE 1888 -448 1872 -448
WIRE 1904 -448 1888 -448
WIRE 2112 -448 1904 -448
WIRE 656 -432 656 -544
WIRE 672 -432 656 -432
WIRE 1344 -432 1344 -560
WIRE 1344 -432 1328 -432
WIRE 1360 -432 1344 -432
WIRE 1520 -432 1360 -432
WIRE 1696 -432 1696 -480
WIRE 1696 -432 1648 -432
WIRE 1808 -432 1696 -432
WIRE 112 -416 112 -528
WIRE 128 -416 112 -416
WIRE 752 -416 752 -544
WIRE 752 -416 736 -416
WIRE 768 -416 752 -416
WIRE 976 -416 768 -416
WIRE 1168 -416 1168 -464
WIRE 1168 -416 1136 -416
WIRE 1264 -416 1168 -416
WIRE -480 -400 -544 -400
WIRE -384 -400 -384 -512
WIRE -384 -400 -400 -400
WIRE -352 -400 -384 -400
WIRE 208 -400 208 -528
WIRE 208 -400 192 -400
WIRE 224 -400 208 -400
WIRE 384 -400 224 -400
WIRE 560 -400 560 -448
WIRE 560 -400 512 -400
WIRE 672 -400 560 -400
WIRE -272 -384 -272 -512
WIRE -272 -384 -288 -384
WIRE -160 -384 -272 -384
WIRE 32 -384 32 -432
WIRE 32 -384 0 -384
WIRE 128 -384 32 -384
WIRE -544 -368 -544 -400
WIRE -352 -368 -384 -368
WIRE 1584 -336 1584 -432
WIRE 1664 -336 1584 -336
WIRE 1904 -336 1904 -448
WIRE 1904 -336 1744 -336
WIRE 1056 -320 1056 -416
WIRE 1152 -320 1056 -320
WIRE 1360 -320 1360 -432
WIRE 1360 -320 1216 -320
WIRE -384 -304 -384 -368
WIRE 448 -304 448 -400
WIRE 528 -304 448 -304
WIRE 768 -304 768 -416
WIRE 768 -304 608 -304
WIRE -80 -288 -80 -384
WIRE 16 -288 -80 -288
WIRE 224 -288 224 -400
WIRE 224 -288 80 -288
FLAG -752 -624 VCC
FLAG -752 -448 VEE
FLAG 160 -432 VCC
FLAG 160 -368 VEE
FLAG -672 -544 0
FLAG 32 -496 0
FLAG -544 -288 0
FLAG 704 -448 VCC
FLAG 704 -384 VEE
FLAG 560 -528 0
FLAG 112 -608 0
FLAG 656 -624 0
FLAG -320 -416 VCC
FLAG -320 -352 VEE
FLAG -384 -304 0
FLAG 1296 -464 VCC
FLAG 1296 -400 VEE
FLAG 1168 -528 0
FLAG 1840 -480 VCC
FLAG 1840 -416 VEE
FLAG 1696 -560 0
FLAG 1248 -640 0
FLAG 1792 -656 0
SYMBOL voltage -752 -640 R0
WINDOW 123 0 0 Left 0
WINDOW 39 0 0 Left 0
WINDOW 3 42 41 Left 2
SYMATTR Value 15
SYMATTR InstName V1
SYMBOL voltage -752 -544 R0
WINDOW 123 0 0 Left 0
WINDOW 39 0 0 Left 0
WINDOW 0 36 39 Left 2
SYMATTR InstName V4
SYMATTR Value 15
SYMBOL res -96 -368 R270
WINDOW 0 32 56 VTop 2
WINDOW 3 0 56 VBottom 2
SYMATTR InstName R11
SYMATTR Value 159k
SYMBOL OpAmps\\LT1006 160 -464 R0
SYMATTR InstName U1
SYMBOL res -176 -368 R270
WINDOW 0 32 56 VTop 2
WINDOW 3 0 56 VBottom 2
SYMATTR InstName R1
SYMATTR Value 159k
SYMBOL cap 80 -304 R90
WINDOW 0 0 32 VBottom 2
WINDOW 3 32 32 VTop 2
SYMATTR InstName C2
SYMATTR Value 100n
SYMBOL cap 48 -432 R180
WINDOW 0 24 56 Left 2
WINDOW 3 24 8 Left 2
SYMATTR InstName C1
SYMATTR Value 100n
SYMBOL voltage -544 -384 R0
WINDOW 123 -26 -22 Left 2
WINDOW 39 0 0 Left 0
WINDOW 3 -341 151 Left 2
WINDOW 0 -30 -51 Left 2
SYMATTR Value2 AC 1
SYMATTR Value ""
SYMATTR InstName VIN1
SYMBOL res 512 -288 R270
WINDOW 0 32 56 VTop 2
WINDOW 3 0 56 VBottom 2
SYMATTR InstName R2
SYMATTR Value 159k
SYMBOL OpAmps\\LT1006 704 -480 R0
SYMATTR InstName U2
SYMBOL res 544 -544 R0
SYMATTR InstName R3
SYMATTR Value 159k
SYMBOL cap 448 -384 R270
WINDOW 0 32 32 VTop 2
WINDOW 3 0 32 VBottom 2
SYMATTR InstName C3
SYMATTR Value 10µ
SYMBOL cap 384 -384 R270
WINDOW 0 32 32 VTop 2
WINDOW 3 0 32 VBottom 2
SYMATTR InstName C4
SYMATTR Value 10µ
SYMBOL res 96 -624 R0
SYMATTR InstName R4
SYMATTR Value 10k
SYMBOL res 224 -544 R90
WINDOW 0 21 -11 VBottom 2
WINDOW 3 31 -19 VTop 2
SYMATTR InstName R5
SYMATTR Value 1.52k
SYMBOL res 640 -640 R0
SYMATTR InstName R6
SYMATTR Value 10k
SYMBOL res 768 -560 R90
WINDOW 0 21 -11 VBottom 2
WINDOW 3 31 -19 VTop 2
SYMATTR InstName R7
SYMATTR Value 1.52k
SYMBOL OpAmps\\LT1006 -320 -448 R0
SYMATTR InstName U3
SYMBOL res -496 -384 R270
WINDOW 0 32 56 VTop 2
WINDOW 3 0 56 VBottom 2
SYMATTR InstName R8
SYMATTR Value 66.04k
SYMBOL res -368 -496 R270
WINDOW 0 32 56 VTop 2
WINDOW 3 0 56 VBottom 2
SYMATTR InstName R9
SYMATTR Value 10k
SYMBOL res 1040 -400 R270
WINDOW 0 32 56 VTop 2
WINDOW 3 0 56 VBottom 2
SYMATTR InstName R10
SYMATTR Value 159k
SYMBOL OpAmps\\LT1006 1296 -496 R0
SYMATTR InstName U4
SYMBOL res 960 -400 R270
WINDOW 0 32 56 VTop 2
WINDOW 3 0 56 VBottom 2
SYMATTR InstName R12
SYMATTR Value 159k
SYMBOL cap 1216 -336 R90
WINDOW 0 0 32 VBottom 2
WINDOW 3 32 32 VTop 2
SYMATTR InstName C5
SYMATTR Value 100n
SYMBOL cap 1184 -464 R180
WINDOW 0 24 56 Left 2
WINDOW 3 24 8 Left 2
SYMATTR InstName C6
SYMATTR Value 100n
SYMBOL res 1648 -320 R270
WINDOW 0 32 56 VTop 2
WINDOW 3 0 56 VBottom 2
SYMATTR InstName R13
SYMATTR Value 159k
SYMBOL OpAmps\\LT1006 1840 -512 R0
SYMATTR InstName U5
SYMBOL res 1680 -576 R0
SYMATTR InstName R14
SYMATTR Value 159k
SYMBOL cap 1584 -416 R270
WINDOW 0 32 32 VTop 2
WINDOW 3 0 32 VBottom 2
SYMATTR InstName C7
SYMATTR Value 10µ
SYMBOL cap 1520 -416 R270
WINDOW 0 32 32 VTop 2
WINDOW 3 0 32 VBottom 2
SYMATTR InstName C8
SYMATTR Value 10µ
SYMBOL res 1232 -656 R0
SYMATTR InstName R15
SYMATTR Value 10k
SYMBOL res 1360 -576 R90
WINDOW 0 21 -11 VBottom 2
WINDOW 3 31 -19 VTop 2
SYMATTR InstName R16
SYMATTR Value 12.35k
SYMBOL res 1776 -672 R0
SYMATTR InstName R17
SYMATTR Value 10k
SYMBOL res 1904 -592 R90
WINDOW 0 21 -11 VBottom 2
WINDOW 3 31 -19 VTop 2
SYMATTR InstName R18
SYMATTR Value 12.35k
TEXT -696 -144 Left 2 !.ac dec 20 0.01 100
TEXT -528 -920 Left 2 ;Bandpass active filters with Sallen-Key circuits (5 - Active Filters)\nhttps://www.youtube.com/watch?v=PKjEDrIzd_M \n \nLow Pass Active Filters @ 25.55min\nhttps://www.youtube.com/watch?v=FGbm4HUzUwk\n \ngain=k^2 = 2.57 ^ 2 = 6.604 \nratios may be 1-k or just resistor ratios. be careful\n10k * 0.152 = 1.52k\n10k * 1.235 = 12.35k
