Version 4
SHEET 1 2756 2104
WIRE -672 -544 -752 -544
WIRE -752 -528 -752 -544
WIRE -352 -512 -384 -512
WIRE 64 -480 -32 -480
WIRE 272 -480 128 -480
WIRE 560 -464 480 -464
WIRE 800 -464 640 -464
WIRE 1120 -448 1024 -448
WIRE 1328 -448 1184 -448
WIRE 1648 -432 1568 -432
WIRE 1888 -432 1728 -432
WIRE -480 -400 -544 -400
WIRE -384 -400 -384 -512
WIRE -384 -400 -400 -400
WIRE -352 -400 -384 -400
WIRE -272 -384 -272 -512
WIRE -272 -384 -288 -384
WIRE -112 -384 -272 -384
WIRE -32 -384 -32 -480
WIRE 80 -384 48 -384
WIRE 176 -384 80 -384
WIRE -544 -368 -544 -400
WIRE -352 -368 -384 -368
WIRE 256 -368 240 -368
WIRE 272 -368 272 -480
WIRE 272 -368 256 -368
WIRE 416 -368 272 -368
WIRE 480 -368 480 -464
WIRE 592 -368 544 -368
WIRE 704 -368 592 -368
WIRE 176 -352 160 -352
WIRE 784 -352 768 -352
WIRE 800 -352 800 -464
WIRE 800 -352 784 -352
WIRE 944 -352 800 -352
WIRE 1024 -352 1024 -448
WIRE 1136 -352 1104 -352
WIRE 1232 -352 1136 -352
WIRE 80 -336 80 -384
WIRE 704 -336 688 -336
WIRE 1312 -336 1296 -336
WIRE 1328 -336 1328 -448
WIRE 1328 -336 1312 -336
WIRE 1504 -336 1328 -336
WIRE 1568 -336 1568 -432
WIRE 1680 -336 1632 -336
WIRE 1792 -336 1680 -336
WIRE 592 -320 592 -368
WIRE 1232 -320 1216 -320
WIRE 1872 -320 1856 -320
WIRE 1888 -320 1888 -432
WIRE 1888 -320 1872 -320
WIRE 2080 -320 1888 -320
WIRE -384 -304 -384 -368
WIRE 1136 -304 1136 -352
WIRE 1792 -304 1776 -304
WIRE 1680 -288 1680 -336
WIRE 160 -240 160 -352
WIRE 176 -240 160 -240
WIRE 256 -240 256 -368
WIRE 688 -224 688 -336
WIRE 704 -224 688 -224
WIRE 784 -224 784 -352
WIRE 1216 -208 1216 -320
WIRE 1232 -208 1216 -208
WIRE 1312 -208 1312 -336
WIRE 1776 -192 1776 -304
WIRE 1792 -192 1776 -192
WIRE 1872 -192 1872 -320
FLAG -752 -624 VCC
FLAG -752 -448 VEE
FLAG 208 -336 VCC
FLAG 208 -400 VEE
FLAG -672 -544 0
FLAG 80 -272 0
FLAG -544 -288 0
FLAG 736 -320 VCC
FLAG 736 -384 VEE
FLAG 592 -240 0
FLAG 160 -160 0
FLAG 688 -144 0
FLAG -320 -416 VCC
FLAG -320 -352 VEE
FLAG -384 -304 0
FLAG 1264 -304 VCC
FLAG 1264 -368 VEE
FLAG 1136 -240 0
FLAG 1824 -288 VCC
FLAG 1824 -352 VEE
FLAG 1680 -208 0
FLAG 1216 -128 0
FLAG 1776 -112 0
SYMBOL voltage -752 -640 R0
WINDOW 123 0 0 Left 0
WINDOW 39 0 0 Left 0
WINDOW 3 42 41 Left 2
SYMATTR Value 15
SYMATTR InstName V1
SYMBOL voltage -752 -544 R0
WINDOW 123 0 0 Left 0
WINDOW 39 0 0 Left 0
WINDOW 0 36 39 Left 2
SYMATTR InstName V4
SYMATTR Value 15
SYMBOL res -48 -400 M90
WINDOW 0 0 56 VBottom 2
WINDOW 3 32 56 VTop 2
SYMATTR InstName R11
SYMATTR Value 159k
SYMBOL OpAmps\\LT1006 208 -304 M180
SYMATTR InstName U1
SYMBOL res -128 -400 M90
WINDOW 0 0 56 VBottom 2
WINDOW 3 32 56 VTop 2
SYMATTR InstName R1
SYMATTR Value 159k
SYMBOL cap 128 -464 M270
WINDOW 0 32 32 VTop 2
WINDOW 3 0 32 VBottom 2
SYMATTR InstName C2
SYMATTR Value 100n
SYMBOL cap 96 -336 M0
SYMATTR InstName C1
SYMATTR Value 100n
SYMBOL voltage -544 -384 R0
WINDOW 123 -26 -22 Left 2
WINDOW 39 0 0 Left 0
WINDOW 3 -341 151 Left 2
WINDOW 0 -30 -51 Left 2
SYMATTR Value2 AC 1
SYMATTR Value ""
SYMATTR InstName VIN1
SYMBOL res 544 -480 M90
WINDOW 0 0 56 VBottom 2
WINDOW 3 32 56 VTop 2
SYMATTR InstName R2
SYMATTR Value 159k
SYMBOL OpAmps\\LT1006 736 -288 M180
SYMATTR InstName U2
SYMBOL res 576 -224 M180
WINDOW 0 36 76 Left 2
WINDOW 3 36 40 Left 2
SYMATTR InstName R3
SYMATTR Value 159k
SYMBOL cap 480 -384 M90
WINDOW 0 0 32 VBottom 2
WINDOW 3 32 32 VTop 2
SYMATTR InstName C3
SYMATTR Value 10µ
SYMBOL cap 416 -384 M90
WINDOW 0 0 32 VBottom 2
WINDOW 3 32 32 VTop 2
SYMATTR InstName C4
SYMATTR Value 10µ
SYMBOL res 144 -144 M180
WINDOW 0 36 76 Left 2
WINDOW 3 36 40 Left 2
SYMATTR InstName R4
SYMATTR Value 10k
SYMBOL res 272 -224 M270
WINDOW 0 32 56 VTop 2
WINDOW 3 0 56 VBottom 2
SYMATTR InstName R5
SYMATTR Value 1.52k
SYMBOL res 672 -128 M180
WINDOW 0 36 76 Left 2
WINDOW 3 36 40 Left 2
SYMATTR InstName R6
SYMATTR Value 10k
SYMBOL res 800 -208 M270
WINDOW 0 32 56 VTop 2
WINDOW 3 0 56 VBottom 2
SYMATTR InstName R7
SYMATTR Value 1.52k
SYMBOL OpAmps\\LT1006 -320 -448 R0
SYMATTR InstName U3
SYMBOL res -496 -384 R270
WINDOW 0 32 56 VTop 2
WINDOW 3 0 56 VBottom 2
SYMATTR InstName R8
SYMATTR Value 66.04k
SYMBOL res -368 -496 R270
WINDOW 0 32 56 VTop 2
WINDOW 3 0 56 VBottom 2
SYMATTR InstName R9
SYMATTR Value 10k
SYMBOL res 1008 -368 M90
WINDOW 0 0 56 VBottom 2
WINDOW 3 32 56 VTop 2
SYMATTR InstName R10
SYMATTR Value 159k
SYMBOL OpAmps\\LT1006 1264 -272 M180
SYMATTR InstName U4
SYMBOL res 928 -368 M90
WINDOW 0 0 56 VBottom 2
WINDOW 3 32 56 VTop 2
SYMATTR InstName R12
SYMATTR Value 159k
SYMBOL cap 1184 -432 M270
WINDOW 0 32 32 VTop 2
WINDOW 3 0 32 VBottom 2
SYMATTR InstName C5
SYMATTR Value 100n
SYMBOL cap 1152 -304 M0
SYMATTR InstName C6
SYMATTR Value 100n
SYMBOL res 1632 -448 M90
WINDOW 0 0 56 VBottom 2
WINDOW 3 32 56 VTop 2
SYMATTR InstName R13
SYMATTR Value 159k
SYMBOL OpAmps\\LT1006 1824 -256 M180
SYMATTR InstName U5
SYMBOL res 1664 -192 M180
WINDOW 0 36 76 Left 2
WINDOW 3 36 40 Left 2
SYMATTR InstName R14
SYMATTR Value 159k
SYMBOL cap 1568 -352 M90
WINDOW 0 0 32 VBottom 2
WINDOW 3 32 32 VTop 2
SYMATTR InstName C7
SYMATTR Value 10µ
SYMBOL cap 1504 -352 M90
WINDOW 0 0 32 VBottom 2
WINDOW 3 32 32 VTop 2
SYMATTR InstName C8
SYMATTR Value 10µ
SYMBOL res 1200 -112 M180
WINDOW 0 36 76 Left 2
WINDOW 3 36 40 Left 2
SYMATTR InstName R15
SYMATTR Value 10k
SYMBOL res 1328 -192 M270
WINDOW 0 32 56 VTop 2
WINDOW 3 0 56 VBottom 2
SYMATTR InstName R16
SYMATTR Value 12.35k
SYMBOL res 1760 -96 M180
WINDOW 0 36 76 Left 2
WINDOW 3 36 40 Left 2
SYMATTR InstName R17
SYMATTR Value 10k
SYMBOL res 1888 -176 M270
WINDOW 0 32 56 VTop 2
WINDOW 3 0 56 VBottom 2
SYMATTR InstName R18
SYMATTR Value 12.35k
TEXT -696 -144 Left 2 !.ac dec 20 0.01 100
TEXT -528 -920 Left 2 ;Bandpass active filters with Sallen-Key circuits (5 - Active Filters)\nhttps://www.youtube.com/watch?v=PKjEDrIzd_M \n \nLow Pass Active Filters @ 25.55min\nhttps://www.youtube.com/watch?v=FGbm4HUzUwk\n \ngain=k^2 = 2.57 ^ 2 = 6.604 \nratios may be 1-k or just resistor ratios. be careful\n10k * 0.152 = 1.52k\n10k * 1.235 = 12.35k
