Version 4
SHEET 1 1904 680
WIRE 336 -192 240 -192
WIRE 496 -192 400 -192
WIRE 240 -112 240 -192
WIRE 336 -112 240 -112
WIRE 496 -112 496 -192
WIRE 496 -112 400 -112
WIRE 240 -16 240 -112
WIRE 320 -16 240 -16
WIRE 496 -16 496 -112
WIRE 496 -16 400 -16
WIRE 1040 64 1008 64
WIRE -192 80 -272 80
WIRE 64 80 -80 80
WIRE 240 80 240 -16
WIRE 240 80 144 80
WIRE 384 80 240 80
WIRE 1152 80 1104 80
WIRE -272 96 -272 80
WIRE -192 96 -192 80
WIRE -80 96 -80 80
WIRE 496 96 496 -16
WIRE 496 96 448 96
WIRE 608 96 496 96
WIRE 1040 96 608 96
WIRE 384 112 336 112
WIRE 784 176 608 176
WIRE 1008 176 1008 64
WIRE 1216 176 1216 80
WIRE 1216 176 1008 176
WIRE 336 192 336 112
WIRE 1008 256 1008 176
WIRE 1040 256 1008 256
WIRE 1152 272 1104 272
WIRE 1216 272 1216 176
WIRE 1040 288 928 288
WIRE 1216 384 1216 272
FLAG -80 176 0
FLAG -192 96 0
FLAG -272 0 VCC
FLAG -272 176 VEE
FLAG 416 64 VCC
FLAG 416 128 VEE
FLAG 336 192 0
FLAG 608 256 0
FLAG 1072 48 VCC
FLAG 1072 112 VEE
FLAG 1072 240 VCC
FLAG 1072 304 VEE
FLAG 928 368 0
FLAG 1216 464 VEE
SYMBOL voltage -80 80 R0
WINDOW 123 0 0 Left 0
WINDOW 39 0 0 Left 0
WINDOW 3 -425 174 Left 2
SYMATTR Value PULSE(-2.5 2.5 2ms 10ns 10ns 0.5ms 1ms 7)
SYMATTR InstName VIN
SYMBOL voltage -272 -16 R0
WINDOW 123 0 0 Left 0
WINDOW 39 0 0 Left 0
WINDOW 3 48 40 Left 2
SYMATTR Value 15
SYMATTR InstName V2
SYMBOL voltage -272 80 R0
WINDOW 123 0 0 Left 0
WINDOW 39 0 0 Left 0
WINDOW 0 36 39 Left 2
SYMATTR InstName V3
SYMATTR Value 15
SYMBOL OpAmps\\LT1006 416 32 R0
SYMATTR InstName U1
SYMBOL res 160 64 R90
WINDOW 0 0 56 VBottom 2
WINDOW 3 -50 55 VTop 2
SYMATTR InstName R4
SYMATTR Value 10k
SYMBOL res 592 160 R0
SYMATTR InstName R2
SYMATTR Value 10k
SYMBOL res 592 80 R0
SYMATTR InstName R1
SYMATTR Value 12k
SYMBOL OpAmps\\LT1006 1072 16 R0
SYMATTR InstName U2
SYMBOL diode 400 -208 R90
WINDOW 0 0 32 VBottom 2
WINDOW 3 32 32 VTop 2
SYMATTR InstName D1
SYMBOL diode 336 -96 R270
WINDOW 0 32 32 VTop 2
WINDOW 3 0 32 VBottom 2
SYMATTR InstName D2
SYMBOL res 416 -32 R90
WINDOW 0 0 56 VBottom 2
WINDOW 3 -50 55 VTop 2
SYMATTR InstName R3
SYMATTR Value 50k
SYMBOL OpAmps\\LT1006 1072 208 R0
SYMATTR InstName U3
SYMBOL diode 1152 96 R270
WINDOW 0 32 32 VTop 2
WINDOW 3 0 32 VBottom 2
SYMATTR InstName D3
SYMBOL diode 1152 288 R270
WINDOW 0 32 32 VTop 2
WINDOW 3 0 32 VBottom 2
SYMATTR InstName D4
SYMBOL voltage 928 272 R0
WINDOW 123 0 0 Left 0
WINDOW 39 0 0 Left 0
WINDOW 3 -67 74 Left 2
WINDOW 0 -67 50 Left 2
SYMATTR Value -0.3V
SYMATTR InstName V5
SYMBOL current 1216 384 R0
WINDOW 123 0 0 Left 0
WINDOW 39 0 0 Left 0
SYMATTR InstName I1
SYMATTR Value 1mA
TEXT -456 304 Left 2 !.tran 10ms
TEXT 608 -240 Left 2 ;To get output into +-0.3 range from +-0.6V\neasier to just use a resistor divider.
