Version 4
SHEET 1 1904 680
WIRE 384 -208 240 -208
WIRE 640 -208 464 -208
WIRE 176 -160 48 -160
WIRE 176 -64 176 -160
WIRE 480 -64 352 -64
WIRE 640 -64 640 -208
WIRE 640 -64 544 -64
WIRE -192 80 -272 80
WIRE 64 80 -80 80
WIRE 240 80 240 -112
WIRE 240 80 144 80
WIRE 352 80 352 -64
WIRE 352 80 240 80
WIRE 464 80 352 80
WIRE -272 96 -272 80
WIRE -192 96 -192 80
WIRE -80 96 -80 80
WIRE 640 112 640 -64
WIRE 640 112 608 112
WIRE 464 144 336 144
WIRE 240 272 240 80
WIRE 176 320 176 224
WIRE 176 320 48 320
WIRE 400 368 240 368
WIRE 640 368 640 112
WIRE 640 368 480 368
FLAG -80 176 0
FLAG -192 96 0
FLAG -272 0 VCC
FLAG -272 176 VEE
FLAG 496 32 VCC
FLAG 496 192 VEE
FLAG 336 224 0
FLAG 48 400 0
FLAG 48 -80 0
SYMBOL voltage -80 80 R0
WINDOW 123 0 0 Left 0
WINDOW 39 0 0 Left 0
WINDOW 3 -425 174 Left 2
SYMATTR Value PULSE(0 15 2ms 10ns 10ns 0.5ms 1ms 7)
SYMATTR InstName VIN
SYMBOL voltage -272 -16 R0
WINDOW 123 0 0 Left 0
WINDOW 39 0 0 Left 0
WINDOW 3 48 40 Left 2
SYMATTR Value 15
SYMATTR InstName V2
SYMBOL voltage -272 80 R0
WINDOW 123 0 0 Left 0
WINDOW 39 0 0 Left 0
WINDOW 0 36 39 Left 2
SYMATTR InstName V3
SYMATTR Value 0
SYMBOL res 160 64 R90
WINDOW 0 0 56 VBottom 2
WINDOW 3 -50 55 VTop 2
SYMATTR InstName R4
SYMATTR Value 10k
SYMBOL voltage 336 128 R0
WINDOW 123 0 0 Left 0
WINDOW 39 0 0 Left 0
WINDOW 3 -51 73 Left 2
WINDOW 0 -67 50 Left 2
SYMATTR Value 7
SYMATTR InstName V1
SYMBOL npn 176 272 R0
SYMATTR InstName Q1
SYMATTR Value 2N3904
SYMBOL voltage 48 304 R0
WINDOW 123 0 0 Left 0
WINDOW 39 0 0 Left 0
WINDOW 3 -67 74 Left 2
WINDOW 0 -67 50 Left 2
SYMATTR Value 2.6
SYMATTR InstName V4
SYMBOL pnp 176 -112 M180
SYMATTR InstName Q2
SYMATTR Value 2N3906
SYMBOL voltage 48 -176 R0
WINDOW 123 0 0 Left 0
WINDOW 39 0 0 Left 0
WINDOW 3 -90 77 Left 2
WINDOW 0 -67 50 Left 2
SYMATTR Value 13.4
SYMATTR InstName V5
SYMBOL OpAmps\\LT6011 496 112 R0
SYMATTR InstName U2
SYMBOL res 480 -224 R90
WINDOW 0 0 56 VBottom 2
WINDOW 3 -50 55 VTop 2
SYMATTR InstName R1
SYMATTR Value 1
SYMBOL res 496 352 R90
WINDOW 0 0 56 VBottom 2
WINDOW 3 -50 55 VTop 2
SYMATTR InstName R2
SYMATTR Value 1
SYMBOL cap 544 -80 R90
WINDOW 0 0 32 VBottom 2
WINDOW 3 32 32 VTop 2
SYMATTR InstName C1
SYMATTR Value 100p
TEXT -456 304 Left 2 !.tran 10ms
TEXT 856 -152 Left 2 ;OK. this is clamping a 0-15V. input to 3-5V fairly well\nreally needs RRIO to test properly
TEXT 888 0 Left 2 ;lt6011 is RRIO. nice. 1-5V works fine.\nslew 0.1V/us    GBW 330kHz.\n1-14V. bit of oscillation.
TEXT 896 136 Left 2 ;1k-10k series resistors stop the oscillatioin.
TEXT 696 -336 Left 2 ;the series resistance actually controls the slew.
