Version 4
SHEET 1 1904 680
WIRE 496 -208 240 -208
WIRE 176 -160 48 -160
WIRE 176 -64 176 -160
WIRE 400 -32 352 -32
WIRE 496 -32 496 -208
WIRE 496 -32 464 -32
WIRE -192 80 -272 80
WIRE 64 80 -80 80
WIRE 240 80 240 -112
WIRE 240 80 144 80
WIRE 352 80 352 -32
WIRE 352 80 240 80
WIRE 384 80 352 80
WIRE -272 96 -272 80
WIRE -192 96 -192 80
WIRE -80 96 -80 80
WIRE 496 96 496 -32
WIRE 496 96 448 96
WIRE 608 96 496 96
WIRE 384 112 336 112
WIRE 240 272 240 80
WIRE 176 320 176 224
WIRE 176 320 48 320
WIRE 496 368 496 96
WIRE 496 368 240 368
FLAG -80 176 0
FLAG -192 96 0
FLAG -272 0 VCC
FLAG -272 176 VEE
FLAG 416 64 VCC
FLAG 416 128 VEE
FLAG 336 192 0
FLAG 48 400 0
FLAG 48 -80 0
SYMBOL voltage -80 80 R0
WINDOW 123 0 0 Left 0
WINDOW 39 0 0 Left 0
WINDOW 3 -425 174 Left 2
SYMATTR Value PULSE(0 15 2ms 10ns 10ns 0.5ms 1ms 7)
SYMATTR InstName VIN
SYMBOL voltage -272 -16 R0
WINDOW 123 0 0 Left 0
WINDOW 39 0 0 Left 0
WINDOW 3 48 40 Left 2
SYMATTR Value 15
SYMATTR InstName V2
SYMBOL voltage -272 80 R0
WINDOW 123 0 0 Left 0
WINDOW 39 0 0 Left 0
WINDOW 0 36 39 Left 2
SYMATTR InstName V3
SYMATTR Value 0
SYMBOL OpAmps\\LT1006 416 32 R0
SYMATTR InstName U1
SYMBOL res 160 64 R90
WINDOW 0 0 56 VBottom 2
WINDOW 3 -50 55 VTop 2
SYMATTR InstName R4
SYMATTR Value 10k
SYMBOL voltage 336 96 R0
WINDOW 123 0 0 Left 0
WINDOW 39 0 0 Left 0
WINDOW 3 -51 73 Left 2
WINDOW 0 -67 50 Left 2
SYMATTR Value 3.5
SYMATTR InstName V1
SYMBOL npn 176 272 R0
SYMATTR InstName Q1
SYMATTR Value 2N3904
SYMBOL voltage 48 304 R0
WINDOW 123 0 0 Left 0
WINDOW 39 0 0 Left 0
WINDOW 3 -67 74 Left 2
WINDOW 0 -67 50 Left 2
SYMATTR Value 2.6
SYMATTR InstName V4
SYMBOL pnp 176 -112 M180
SYMATTR InstName Q2
SYMATTR Value 2N3906
SYMBOL voltage 48 -176 R0
WINDOW 123 0 0 Left 0
WINDOW 39 0 0 Left 0
WINDOW 3 -90 77 Left 2
WINDOW 0 -67 50 Left 2
SYMATTR Value 4.4
SYMATTR InstName V5
SYMBOL cap 464 -48 R90
WINDOW 0 0 32 VBottom 2
WINDOW 3 32 32 VTop 2
SYMATTR InstName C1
SYMATTR Value 20n
TEXT -456 304 Left 2 !.tran 10ms
TEXT 600 -136 Left 2 ;OK. this is clamping a 0-15V. input to 3-5V fairly well\nreally needs RRIO to test properly
