Version 4
SHEET 1 2756 1020
WIRE 1184 128 1024 128
WIRE 1280 128 1184 128
WIRE 1232 144 1216 144
WIRE 1392 224 1280 224
WIRE 1408 224 1392 224
WIRE 1424 224 1408 224
WIRE 1104 240 992 240
WIRE 1120 240 1104 240
WIRE 1216 240 1216 144
WIRE 1216 240 1120 240
WIRE 1216 304 1216 240
WIRE 1232 304 1216 304
WIRE 608 336 512 336
WIRE 640 336 608 336
WIRE 816 336 720 336
WIRE 992 336 992 240
WIRE 1104 352 1104 240
WIRE 512 384 512 336
WIRE 1104 416 992 416
WIRE 1248 416 1104 416
WIRE 1280 416 1280 320
WIRE 1280 416 1248 416
FLAG 512 464 0
FLAG 1184 128 VCC_BOOT
FLAG 1248 416 VEE_BOOT
FLAG 1120 240 SW
FLAG 608 336 sig
FLAG 1408 224 CSW
FLAG 816 416 0
FLAG 192 32 VEE_BOOT
FLAG 192 -48 VCC_BOOT
FLAG 1392 304 0
SYMBOL voltage 192 -64 R0
WINDOW 123 0 0 Left 0
WINDOW 39 0 0 Left 0
WINDOW 3 42 41 Left 2
SYMATTR Value 18
SYMATTR InstName V1
SYMBOL voltage 512 368 R0
WINDOW 123 0 0 Left 0
WINDOW 39 0 0 Left 0
WINDOW 3 -80 141 Left 2
SYMATTR Value PULSE(0 5 0 100n 100n 0.2ms 0.4ms 7)
SYMATTR InstName VIN2
SYMBOL res 736 320 R90
WINDOW 0 0 56 VBottom 2
WINDOW 3 32 56 VTop 2
SYMATTR InstName R1
SYMATTR Value 1k
SYMBOL nmos 1232 224 R0
SYMATTR InstName M1
SYMBOL pmos 1232 224 M180
SYMATTR InstName M2
SYMBOL ind2 832 432 R180
WINDOW 0 36 80 Left 2
WINDOW 3 36 40 Left 2
SYMATTR InstName L1
SYMATTR Value 500µ
SYMATTR Type ind
SYMBOL ind2 976 432 M180
WINDOW 0 36 80 Left 2
WINDOW 3 36 40 Left 2
SYMATTR InstName L2
SYMATTR Value 500µ
SYMATTR Type ind
SYMBOL res 1376 208 R0
SYMATTR InstName R2
SYMATTR Value 1Meg
SYMBOL cap 1088 352 R0
SYMATTR InstName C1
SYMATTR Value 100p
TEXT 416 -72 Left 2 !.tran 3ms
TEXT 416 8 Left 2 !.include 74hc.lib
TEXT 1440 -224 Left 2 !K L1 L2 99.5
TEXT 1272 -160 Left 2 ;CMOS gate will leak. But an SR latch will hold.
