Version 4
SHEET 1 2756 1020
WIRE -128 64 -240 64
WIRE -96 64 -128 64
WIRE 80 64 -16 64
WIRE 208 64 80 64
WIRE 416 64 304 64
WIRE 656 64 496 64
WIRE 80 128 80 64
WIRE 496 144 496 64
WIRE 80 224 80 192
WIRE 224 224 224 112
WIRE -240 240 -240 64
WIRE 112 304 80 304
WIRE 400 304 336 304
FLAG 400 384 0
FLAG -128 64 sig
FLAG 496 208 0
FLAG -240 320 0
SYMBOL res 0 48 R90
WINDOW 0 0 56 VBottom 2
WINDOW 3 32 56 VTop 2
SYMATTR InstName R1
SYMATTR Value 10Meg
SYMBOL voltage 400 288 R0
WINDOW 123 0 0 Left 0
WINDOW 39 0 0 Left 0
WINDOW 3 -80 141 Left 2
SYMATTR Value PULSE(0 5 0 100n 100n 0.02ms 0.04ms 300)
SYMATTR InstName VIN1
SYMBOL 74hc04 288 368 R180
SYMATTR InstName U3
SYMBOL res 512 48 R90
WINDOW 0 0 56 VBottom 2
WINDOW 3 32 56 VTop 2
SYMATTR InstName R2
SYMATTR Value 1R
SYMBOL cap 480 144 R0
SYMATTR InstName C1
SYMATTR Value 100p
SYMBOL 74hc04 176 368 R180
SYMATTR InstName U1
SYMBOL res 96 320 R180
WINDOW 0 36 76 Left 2
WINDOW 3 36 40 Left 2
SYMATTR InstName R3
SYMATTR Value 10k
SYMBOL cap 64 128 R0
SYMATTR InstName C2
SYMATTR Value 2.05p
SYMBOL res 240 320 R180
WINDOW 0 36 76 Left 2
WINDOW 3 36 40 Left 2
SYMATTR InstName R4
SYMATTR Value 10k
SYMBOL nmos 304 112 M270
WINDOW 0 99 79 VLeft 2
WINDOW 3 126 85 VLeft 2
SYMATTR InstName M1
SYMATTR Value SD5400CY
SYMBOL voltage -240 224 R0
WINDOW 123 0 0 Left 0
WINDOW 39 0 0 Left 0
WINDOW 0 36 39 Left 2
SYMATTR InstName V1
SYMATTR Value 1mV
TEXT -368 -80 Left 2 !.tran 10ms
TEXT -368 -48 Left 2 !.include 74hc.lib
TEXT -424 552 Left 2 !.model SD5400CY NMOS(Level=1 Cbd=8.08p Cbs=9.7p Cgbo=20.6n Cgdo=2n Cgso=2.4n Gamma=.92 Is=0.325p Kp=4.5m Lambda=22m Mj=.46 Pb=.8 Phi=.75 Rd=8 Rs=13 Vto=1.1 Mfg=Linear_Systems)
TEXT -408 480 Left 2 ;SDY5400CY refhttps://www.linearsystems.com/lsdata/spicemodel/Copy_LTspice_DMOS_LIS_Models_SEP_2019.txt\nNote, sd5400, not 4pin nmos, no substrate pin in model
