Version 4
SHEET 1 2756 1020
WIRE 352 -144 256 -144
WIRE -128 64 -240 64
WIRE -96 64 -128 64
WIRE 208 64 -16 64
WIRE 256 64 256 -144
WIRE 416 64 304 64
WIRE 608 64 496 64
WIRE 656 64 608 64
WIRE 496 144 496 64
WIRE 224 224 224 112
WIRE -240 240 -240 64
WIRE 400 304 336 304
FLAG 400 384 0
FLAG -128 64 sig
FLAG 496 208 0
FLAG -240 320 0
FLAG 352 -64 0
FLAG 608 64 out
SYMBOL res 0 48 R90
WINDOW 0 0 56 VBottom 2
WINDOW 3 32 56 VTop 2
SYMATTR InstName R1
SYMATTR Value 10Meg
SYMBOL voltage 400 288 R0
WINDOW 123 0 0 Left 0
WINDOW 39 0 0 Left 0
WINDOW 3 -80 141 Left 2
SYMATTR Value PULSE(0 5 0 100n 100n 0.02ms 0.04ms 300)
SYMATTR InstName VIN1
SYMBOL 74hc04 288 368 R180
SYMATTR InstName U3
SYMBOL res 512 48 R90
WINDOW 0 0 56 VBottom 2
WINDOW 3 32 56 VTop 2
SYMATTR InstName R2
SYMATTR Value 1R
SYMBOL cap 480 144 R0
SYMATTR InstName C1
SYMATTR Value 100p
SYMBOL res 240 320 R180
WINDOW 0 36 76 Left 2
WINDOW 3 36 40 Left 2
SYMATTR InstName R4
SYMATTR Value 10k
SYMBOL voltage -240 224 R0
WINDOW 123 0 0 Left 0
WINDOW 39 0 0 Left 0
WINDOW 0 36 39 Left 2
SYMATTR InstName V1
SYMATTR Value 1mV
SYMBOL nmos4 304 112 M270
WINDOW 0 132 174 VLeft 2
WINDOW 3 104 180 VLeft 2
SYMATTR InstName M2
SYMATTR Value SD5400CY
SYMBOL voltage 352 -160 R0
WINDOW 123 0 0 Left 0
WINDOW 39 0 0 Left 0
WINDOW 0 36 39 Left 2
SYMATTR InstName V2
SYMATTR Value -10
TEXT -368 -80 Left 2 !.tran 10ms
TEXT -368 -48 Left 2 !.include 74hc.lib
TEXT 800 -224 Left 2 ;nmos4 model is incomplete and cannot be modelled.
TEXT -704 712 Left 2 !.model SD5400CY NMOS(Level=1 Cbd=8.08p Cbs=9.7p Cgbo=20.6n Cgdo=2n Cgso=2.4n Gamma=.92 Is=0.325p Kp=4.5m Lambda=22m Mj=.46 Pb=.8 Phi=.75 Rd=8 Rs=13 Vto=1.1 Mfg=Linear_Systems)
