Version 4
SHEET 1 2756 1020
WIRE -432 64 -544 64
WIRE -208 64 -432 64
WIRE -16 64 -128 64
WIRE 80 64 -16 64
WIRE 192 64 80 64
WIRE 336 64 288 64
WIRE 544 64 336 64
WIRE 656 64 544 64
WIRE 880 64 736 64
WIRE -240 80 -336 80
WIRE -336 128 -336 80
WIRE -320 128 -336 128
WIRE -240 144 -240 80
WIRE -240 144 -256 144
WIRE -208 144 -240 144
WIRE -16 144 -16 128
WIRE -16 144 -128 144
WIRE 336 144 336 128
WIRE 336 144 -16 144
WIRE 448 144 336 144
WIRE 544 144 544 64
WIRE 736 144 736 64
WIRE -432 160 -432 64
WIRE -320 160 -432 160
WIRE 80 160 80 64
WIRE 224 192 224 112
WIRE 480 224 480 192
WIRE 736 256 736 208
WIRE 480 304 80 304
WIRE -112 416 -256 416
WIRE 80 432 80 304
WIRE 80 432 0 432
WIRE -112 480 -112 448
WIRE 16 480 -112 480
WIRE 224 480 224 272
WIRE 224 480 16 480
WIRE 0 496 0 432
WIRE 0 496 -112 496
WIRE -112 528 -112 496
WIRE 16 544 16 480
WIRE 16 544 0 544
WIRE -256 560 -256 416
WIRE -224 560 -224 544
WIRE -224 560 -256 560
WIRE -224 576 -224 560
WIRE -464 592 -544 592
WIRE -544 608 -544 592
WIRE -464 608 -464 592
WIRE -256 672 -256 560
FLAG -544 144 0
FLAG -256 752 0
FLAG -432 64 SIG
FLAG 736 256 0
FLAG -464 608 0
FLAG -544 512 VCC
FLAG -544 688 VEE
FLAG -288 112 VCC
FLAG -288 176 VEE
SYMBOL res -112 48 R90
WINDOW 0 -63 67 VBottom 2
WINDOW 3 -57 46 VTop 2
SYMATTR InstName R1
SYMATTR Value 10Meg
SYMBOL voltage -256 656 R0
WINDOW 123 0 0 Left 0
WINDOW 39 0 0 Left 0
WINDOW 3 -80 141 Left 2
SYMATTR Value PULSE(5 0 0 100n 100n 1ms 3ms 6)
SYMATTR InstName VIN1
SYMBOL njf 288 112 M270
WINDOW 0 115 95 VLeft 2
WINDOW 3 81 97 VLeft 2
SYMATTR InstName J1
SYMATTR Value J201
SYMBOL voltage -544 48 R0
WINDOW 123 0 0 Left 0
WINDOW 39 0 0 Left 0
WINDOW 0 36 39 Left 2
SYMATTR InstName V2
SYMATTR Value 5
SYMBOL res 752 48 R90
WINDOW 0 0 56 VBottom 2
WINDOW 3 32 56 VTop 2
SYMATTR InstName R2
SYMATTR Value 1R
SYMBOL cap 720 144 R0
SYMATTR InstName C1
SYMATTR Value 100p
SYMBOL res 96 320 R180
WINDOW 0 36 76 Left 2
WINDOW 3 36 40 Left 2
SYMATTR InstName R3
SYMATTR Value 10k
SYMBOL cap 64 160 R0
SYMATTR InstName C2
SYMATTR Value 0.53p
SYMBOL res 240 288 R180
WINDOW 0 36 76 Left 2
WINDOW 3 36 40 Left 2
SYMATTR InstName R4
SYMATTR Value 10k
SYMBOL njf 544 192 M270
WINDOW 0 115 98 VLeft 2
WINDOW 3 82 98 VLeft 2
SYMATTR InstName J2
SYMATTR Value J201
SYMBOL res 496 320 R180
WINDOW 0 36 76 Left 2
WINDOW 3 36 40 Left 2
SYMATTR InstName R5
SYMATTR Value 10k
SYMBOL res -112 128 R90
WINDOW 0 88 60 VBottom 2
WINDOW 3 90 63 VTop 2
SYMATTR InstName R6
SYMATTR Value 100R
SYMBOL OpAmps\\OP07 -288 80 R0
SYMATTR InstName U2
SYMBOL voltage -544 496 R0
WINDOW 123 0 0 Left 0
WINDOW 39 0 0 Left 0
WINDOW 3 42 41 Left 2
SYMATTR Value 15
SYMATTR InstName V1
SYMBOL voltage -544 592 R0
WINDOW 123 0 0 Left 0
WINDOW 39 0 0 Left 0
WINDOW 0 36 39 Left 2
SYMATTR InstName V3
SYMATTR Value 15
SYMBOL cap -32 64 R0
SYMATTR InstName C3
SYMATTR Value 47p
SYMBOL cap 320 64 R0
SYMATTR InstName C6
SYMATTR Value 47p
SYMBOL 74hc02 -64 368 R0
SYMATTR InstName U5
SYMBOL 74hc02 -64 480 R0
SYMATTR InstName U7
SYMBOL 74hc02 -176 496 R0
SYMATTR InstName U1
TEXT -376 -200 Left 2 !.tran 20ms
TEXT -376 -120 Left 2 !.include 74hc.lib
TEXT 736 344 Left 2 ;sig/precharge switch.\n1ms precharge, 2ms signal.\nie. 0.1nplc.
TEXT 840 -64 Left 2 ;reduce buffer op impedance it's not needed. to see the effect
TEXT 48 640 Left 2 ;nand flip flop active hi.\nnor flip flop active lo (off). avoids both switches\non at the same time.
