Version 4
SHEET 1 2756 1020
WIRE -432 64 -544 64
WIRE -208 64 -432 64
WIRE -16 64 -128 64
WIRE 80 64 -16 64
WIRE 192 64 80 64
WIRE 336 64 288 64
WIRE 544 64 336 64
WIRE 656 64 544 64
WIRE 880 64 736 64
WIRE -240 80 -336 80
WIRE -336 128 -336 80
WIRE -320 128 -336 128
WIRE -240 144 -240 80
WIRE -240 144 -256 144
WIRE -208 144 -240 144
WIRE -16 144 -16 128
WIRE -16 144 -128 144
WIRE 336 144 336 128
WIRE 336 144 -16 144
WIRE 448 144 336 144
WIRE 544 144 544 64
WIRE 736 144 736 64
WIRE -432 160 -432 64
WIRE -320 160 -432 160
WIRE 80 160 80 64
WIRE 224 192 224 112
WIRE 480 224 480 192
WIRE 736 256 736 208
WIRE 480 304 80 304
WIRE 224 400 224 272
WIRE 112 448 96 448
WIRE 96 512 96 448
WIRE 96 512 64 512
WIRE 176 512 176 448
WIRE 224 512 176 512
WIRE 480 512 480 304
WIRE 384 560 368 560
WIRE -464 592 -544 592
WIRE -544 608 -544 592
WIRE -464 608 -464 592
WIRE 368 624 368 560
WIRE 368 624 64 624
WIRE 448 624 448 560
WIRE 480 624 448 624
WIRE -48 736 -48 624
FLAG -544 144 0
FLAG -48 816 0
FLAG -432 64 SIG
FLAG 736 256 0
FLAG -464 608 0
FLAG -544 512 VCC
FLAG -544 688 VEE
FLAG -288 112 VCC
FLAG -288 176 VEE
FLAG 448 688 0
FLAG 176 576 0
SYMBOL res -112 48 R90
WINDOW 0 -63 67 VBottom 2
WINDOW 3 -57 46 VTop 2
SYMATTR InstName R1
SYMATTR Value 10Meg
SYMBOL voltage -48 720 R0
WINDOW 123 0 0 Left 0
WINDOW 39 0 0 Left 0
WINDOW 3 -80 141 Left 2
SYMATTR Value PULSE(5 0 0 100n 100n 1ms 3ms 6)
SYMATTR InstName VIN1
SYMBOL njf 288 112 M270
WINDOW 0 115 95 VLeft 2
WINDOW 3 81 97 VLeft 2
SYMATTR InstName J1
SYMATTR Value J201
SYMBOL voltage -544 48 R0
WINDOW 123 0 0 Left 0
WINDOW 39 0 0 Left 0
WINDOW 0 36 39 Left 2
SYMATTR InstName V2
SYMATTR Value 5
SYMBOL res 752 48 R90
WINDOW 0 0 56 VBottom 2
WINDOW 3 32 56 VTop 2
SYMATTR InstName R2
SYMATTR Value 1R
SYMBOL cap 720 144 R0
SYMATTR InstName C1
SYMATTR Value 100p
SYMBOL res 96 320 R180
WINDOW 0 36 76 Left 2
WINDOW 3 36 40 Left 2
SYMATTR InstName R3
SYMATTR Value 10k
SYMBOL cap 64 160 R0
SYMATTR InstName C2
SYMATTR Value 0.55p
SYMBOL res 240 288 R180
WINDOW 0 36 76 Left 2
WINDOW 3 36 40 Left 2
SYMATTR InstName R4
SYMATTR Value 10k
SYMBOL njf 544 192 M270
WINDOW 0 115 98 VLeft 2
WINDOW 3 82 98 VLeft 2
SYMATTR InstName J2
SYMATTR Value J201
SYMBOL res 496 320 R180
WINDOW 0 36 76 Left 2
WINDOW 3 36 40 Left 2
SYMATTR InstName R5
SYMATTR Value 10k
SYMBOL res -112 128 R90
WINDOW 0 88 60 VBottom 2
WINDOW 3 90 63 VTop 2
SYMATTR InstName R6
SYMATTR Value 100k
SYMBOL OpAmps\\OP07 -288 80 R0
SYMATTR InstName U2
SYMBOL voltage -544 496 R0
WINDOW 123 0 0 Left 0
WINDOW 39 0 0 Left 0
WINDOW 3 42 41 Left 2
SYMATTR Value 15
SYMATTR InstName V1
SYMBOL voltage -544 592 R0
WINDOW 123 0 0 Left 0
WINDOW 39 0 0 Left 0
WINDOW 0 36 39 Left 2
SYMATTR InstName V3
SYMATTR Value 15
SYMBOL cap -32 64 R0
SYMATTR InstName C3
SYMATTR Value 47p
SYMBOL res 464 608 R90
WINDOW 0 66 58 VBottom 2
WINDOW 3 79 59 VTop 2
SYMATTR InstName R7
SYMATTR Value 5k
SYMBOL cap 432 624 R0
SYMATTR InstName C4
SYMATTR Value 22p
SYMBOL 74hc14 0 576 R0
SYMATTR InstName U6
SYMBOL 74hc14 16 576 R270
SYMATTR InstName U1
SYMBOL 74hc14 176 464 R270
SYMATTR InstName U3
SYMBOL 74hc14 432 576 R270
SYMATTR InstName U4
SYMBOL diode 384 576 R270
WINDOW 0 32 32 VTop 2
WINDOW 3 0 32 VBottom 2
SYMATTR InstName D1
SYMBOL res 192 496 R90
WINDOW 0 66 58 VBottom 2
WINDOW 3 79 59 VTop 2
SYMATTR InstName R8
SYMATTR Value 5k
SYMBOL diode 112 464 R270
WINDOW 0 32 32 VTop 2
WINDOW 3 0 32 VBottom 2
SYMATTR InstName D2
SYMBOL cap 160 512 R0
SYMATTR InstName C5
SYMATTR Value 22p
SYMBOL cap 320 64 R0
SYMATTR InstName C6
SYMATTR Value 47p
TEXT -376 -200 Left 2 !.tran 20ms
TEXT -376 -120 Left 2 !.include 74hc.lib
TEXT 736 344 Left 2 ;sig/precharge switch.\n1ms precharge, 2ms signal.\nie. 0.1nplc.\nwith boot op output set to 100k/ 1Meg. to see affect.
TEXT -600 304 Left 2 ;op output set to 100k/ or 1Meg. to see affect.
TEXT 920 -72 Left 2 ;with caps between sig and precharge
