Version 4
SHEET 1 5720 1740
WIRE 400 -288 320 -288
WIRE 320 -192 320 -288
WIRE 400 -144 400 -288
WIRE 1664 -144 1600 -144
WIRE 1920 -144 1664 -144
WIRE 2080 -144 2000 -144
WIRE 256 -96 256 -144
WIRE 256 -96 144 -96
WIRE 336 -96 320 -96
WIRE 1600 -80 1424 -80
WIRE 1696 -80 1664 -80
WIRE 400 -16 400 -48
WIRE 400 -16 320 -16
WIRE 1664 -16 1600 -16
WIRE 2000 -16 2000 -80
WIRE 2080 -16 2080 -64
WIRE 2080 -16 2000 -16
WIRE 400 0 400 -16
WIRE 560 0 400 0
WIRE 656 0 624 0
WIRE 768 0 736 0
WIRE 1504 0 1424 0
WIRE 400 48 400 0
WIRE 400 48 320 48
WIRE 2080 64 2000 64
WIRE 400 80 400 48
WIRE 1696 80 1696 -80
WIRE 1696 80 1424 80
WIRE 2000 80 2000 64
WIRE 336 128 320 128
WIRE 768 144 768 80
WIRE 1664 144 1664 -16
WIRE 1920 144 1664 144
WIRE 2080 144 2000 144
WIRE 256 176 256 -96
WIRE 1120 288 1024 288
WIRE 1216 288 1120 288
WIRE 1216 320 1216 288
WIRE 320 336 320 224
WIRE 400 336 400 176
WIRE 400 336 320 336
WIRE 1152 368 1024 368
WIRE 1216 416 1088 416
WIRE 224 512 176 512
WIRE 320 512 304 512
WIRE 1024 560 1024 464
WIRE 1120 560 1024 560
WIRE 592 608 560 608
WIRE 880 608 784 608
WIRE -192 624 -256 624
WIRE 176 624 176 512
WIRE -64 640 -128 640
WIRE 96 640 -64 640
WIRE 320 640 320 512
WIRE 320 640 288 640
WIRE 432 640 320 640
WIRE 592 640 432 640
WIRE -368 656 -448 656
WIRE -352 656 -368 656
WIRE -192 656 -352 656
WIRE 816 672 784 672
WIRE 176 688 176 656
WIRE 320 688 176 688
WIRE 288 704 288 640
WIRE 288 704 176 704
WIRE 176 736 176 704
WIRE 320 752 320 688
WIRE 320 752 288 752
WIRE 96 768 96 640
WIRE 176 768 96 768
WIRE -352 784 -352 656
WIRE 560 816 560 608
WIRE 816 816 816 672
WIRE 816 816 560 816
WIRE -512 1008 -560 1008
WIRE -416 1008 -448 1008
WIRE -560 1104 -560 1008
WIRE -560 1104 -688 1104
WIRE -512 1104 -560 1104
WIRE -416 1120 -416 1008
WIRE -416 1120 -448 1120
WIRE -304 1120 -416 1120
WIRE -256 1120 -256 624
WIRE -256 1120 -304 1120
WIRE -512 1136 -560 1136
FLAG -704 256 0
FLAG -704 176 VCC
FLAG 400 416 0
FLAG -880 272 0
FLAG -880 192 P15V
FLAG 400 -368 P15V
FLAG -352 880 0
FLAG -448 720 0
FLAG -128 656 0
FLAG -160 608 VCC
FLAG -64 560 VCC
FLAG -528 656 VCC
FLAG -368 656 CRAMP
FLAG 320 336 IRAMP
FLAG 688 528 VCC
FLAG 688 752 VCC
FLAG 2080 -16 0
FLAG 1504 0 0
FLAG 2080 64 0
FLAG 144 -96 SW1
FLAG 96 640 RST
FLAG 112 512 0
FLAG -160 672 0
FLAG 432 640 QRST
FLAG -496 832 QRST
FLAG 1216 496 0
FLAG 1120 288 P15V
FLAG 768 144 0
FLAG 1024 656 0
FLAG 1120 560 SW1
FLAG 2080 -144 VOUT
FLAG -688 1024 VOUT
FLAG -688 1184 0
FLAG -480 1088 VCC
FLAG -480 1152 0
FLAG -560 1216 0
FLAG -304 1120 FSET
SYMBOL voltage -704 160 R0
WINDOW 123 0 0 Left 0
WINDOW 39 0 0 Left 0
WINDOW 3 48 40 Left 2
SYMATTR Value 5
SYMATTR InstName V2
SYMBOL ind2 752 -16 R0
SYMATTR InstName L1
SYMATTR Value 20µ
SYMATTR Type ind
SYMBOL res 384 320 R0
SYMATTR InstName R1
SYMATTR Value 0.01R
SYMBOL ind2 1408 16 M180
WINDOW 0 36 80 Left 2
WINDOW 3 36 40 Left 2
SYMATTR InstName L3
SYMATTR Value 5000µ
SYMATTR Type ind
SYMBOL voltage -880 176 R0
WINDOW 123 0 0 Left 0
WINDOW 39 0 0 Left 0
WINDOW 3 48 40 Left 2
SYMATTR Value 15
SYMATTR InstName V4
SYMBOL res 416 -272 R180
WINDOW 0 36 76 Left 2
WINDOW 3 36 40 Left 2
SYMATTR InstName R7
SYMATTR Value 0.01R
SYMBOL res -432 640 R90
WINDOW 0 0 56 VBottom 2
WINDOW 3 32 56 VTop 2
SYMATTR InstName R8
SYMATTR Value 10k
SYMBOL cap -464 656 R0
SYMATTR InstName C4
SYMATTR Value 3.5n
SYMBOL npn -416 784 R0
SYMATTR InstName Q4
SYMBOL res -400 816 R90
WINDOW 0 0 56 VBottom 2
WINDOW 3 32 56 VTop 2
SYMATTR InstName R11
SYMATTR Value 100R
SYMBOL res -80 544 R0
SYMATTR InstName R12
SYMATTR Value 3.3k
SYMBOL res 320 496 R90
WINDOW 0 0 56 VBottom 2
WINDOW 3 32 56 VTop 2
SYMATTR InstName R4
SYMATTR Value 10k
SYMBOL 74hc74 688 528 R0
SYMATTR InstName U2
SYMBOL diode 1616 -80 R180
WINDOW 0 24 64 Left 2
WINDOW 3 24 0 Left 2
SYMATTR InstName D5
SYMBOL diode 1680 -80 R180
WINDOW 0 24 64 Left 2
WINDOW 3 24 0 Left 2
SYMATTR InstName D6
SYMBOL diode 1616 -16 R180
WINDOW 0 24 64 Left 2
WINDOW 3 24 0 Left 2
SYMATTR InstName D7
SYMBOL diode 1680 -16 R180
WINDOW 0 24 64 Left 2
WINDOW 3 24 0 Left 2
SYMATTR InstName D8
SYMBOL cap 1984 -144 R0
SYMATTR InstName C2
SYMATTR Value 0.2µ
SYMBOL res 2064 -160 R0
SYMATTR InstName R5
SYMATTR Value 1k
SYMBOL ind2 1904 -128 R270
WINDOW 0 32 56 VTop 2
WINDOW 3 5 56 VBottom 2
SYMATTR InstName L5
SYMATTR Value 47µ
SYMATTR Type ind
SYMBOL xcomp_x11 -160 576 R0
SYMATTR InstName U11
SYMATTR Value LM311
SYMBOL ind2 1408 96 M180
WINDOW 0 36 80 Left 2
WINDOW 3 36 40 Left 2
SYMATTR InstName L4
SYMATTR Value 5000µ
SYMATTR Type ind
SYMBOL ind2 1904 160 R270
WINDOW 0 32 56 VTop 2
WINDOW 3 5 56 VBottom 2
SYMATTR InstName L6
SYMATTR Value 47µ
SYMATTR Type ind
SYMBOL cap 1984 80 R0
SYMATTR InstName C1
SYMATTR Value 0.2µ
SYMBOL res 2064 48 R0
SYMATTR InstName R3
SYMATTR Value 1k
SYMBOL 74hc02 224 576 R0
SYMATTR InstName U4
SYMBOL 74hc02 224 688 R0
SYMATTR InstName U10
SYMBOL cap 176 496 R90
WINDOW 0 0 32 VBottom 2
WINDOW 3 32 32 VTop 2
SYMATTR InstName C3
SYMATTR Value 20p
SYMBOL res 864 624 R270
WINDOW 0 32 56 VTop 2
WINDOW 3 0 56 VBottom 2
SYMATTR InstName R9
SYMATTR Value 2k
SYMBOL pnp 1088 464 R180
SYMATTR InstName Q3
SYMATTR Value 2N3906
SYMBOL pnp 1152 416 M180
SYMATTR InstName Q5
SYMATTR Value 2N3906
SYMBOL res 1008 272 R0
SYMATTR InstName R2
SYMATTR Value 1k
SYMBOL res 1232 512 R180
WINDOW 0 36 76 Left 2
WINDOW 3 36 40 Left 2
SYMATTR InstName R6
SYMATTR Value 100k
SYMBOL pnp 336 176 M180
SYMATTR InstName Q2
SYMATTR Value FJL4215
SYMBOL npn 336 -144 R0
SYMATTR InstName Q1
SYMATTR Value FJL4315
SYMBOL cap 624 -16 R90
WINDOW 0 0 32 VBottom 2
WINDOW 3 32 32 VTop 2
SYMATTR InstName C5
SYMATTR Value 1µ
SYMBOL npn 960 560 R0
SYMATTR InstName Q6
SYMBOL ind2 640 16 R270
WINDOW 0 32 56 VTop 2
WINDOW 3 4 56 VBottom 2
SYMATTR InstName L2
SYMATTR Value 4µ
SYMATTR Type ind
SYMBOL npn 256 -192 R0
SYMATTR InstName Q7
SYMATTR Value 2N3904
SYMBOL pnp 256 224 M180
SYMATTR InstName Q8
SYMATTR Value 2N3906
SYMBOL res 304 -112 R0
WINDOW 0 -41 40 Left 2
WINDOW 3 -44 70 Left 2
SYMATTR InstName R10
SYMATTR Value 120R
SYMBOL res 304 32 R0
WINDOW 0 -39 38 Left 2
WINDOW 3 -55 59 Left 2
SYMATTR InstName R13
SYMATTR Value 120R
SYMBOL res -672 1120 R180
WINDOW 0 36 76 Left 2
WINDOW 3 36 40 Left 2
SYMATTR InstName R14
SYMATTR Value 99k
SYMBOL cap -448 992 R90
WINDOW 0 0 32 VBottom 2
WINDOW 3 32 32 VTop 2
SYMATTR InstName C6
SYMATTR Value 1µ
SYMBOL voltage -560 1120 R0
WINDOW 123 0 0 Left 0
WINDOW 39 0 0 Left 0
WINDOW 3 -75 51 Left 2
WINDOW 0 -66 24 Left 2
SYMATTR Value 1V
SYMATTR InstName V1
SYMBOL OpAmps\\LT1006 -480 1056 R0
SYMATTR InstName U1
SYMBOL res -672 1200 R180
WINDOW 0 36 76 Left 2
WINDOW 3 36 40 Left 2
SYMATTR InstName R15
SYMATTR Value 1k
TEXT -168 -224 Left 2 !.tran 1ms
TEXT -208 -312 Left 2 !.include 74hc.lib
TEXT 1024 -456 Left 2 !K L1 L3 L4 0.99.5
TEXT -184 -368 Left 2 !.include standard.bjt
TEXT -176 -272 Left 2 !.include LM311.301
TEXT 872 -352 Left 2 ;LLC with voltage feedback. working. eg. 50k/1k divider. outputs 50V.\nNote that at 50V output it is not zero current switching.\nissues \n- it is zcs at 100V regulation, with 1k load (100mA), but not zcs with 10k load.\n- issue of weak 2n3904 in darlingtons.\n- when the FSET increases, to slow freq, to increase power, there is point where\n    power falls off. eg. the usual peak. it is hard to control, and get out of.
TEXT -904 -224 Left 2 !.ic V(IRAMP)=0
TEXT -904 -160 Left 2 !.ic V(SW)=0 V(CSW)=5
TEXT 144 776 Left 2 ;S
TEXT 144 600 Left 2 ;R
TEXT 288 600 Left 2 ;Q
TEXT 280 776 Left 2 ;~Q
TEXT -512 -224 Left 2 !.ic V(QRST)=0
TEXT -504 -176 Left 2 !.ic V(RST)=5
TEXT -904 -344 Left 2 !.ic V(A0)=0 V(A1)=5
TEXT -904 -312 Left 2 !.ic V(B0)=5 V(B1)=0
TEXT -904 -88 Left 2 !.ic V(FSET)=0
