Version 4
SHEET 1 1536 680
WIRE 672 16 336 16
WIRE 672 48 672 16
WIRE 224 80 32 80
WIRE 384 80 304 80
WIRE 32 96 32 80
WIRE 608 96 448 96
WIRE 336 112 336 16
WIRE 384 112 336 112
WIRE 336 160 336 112
WIRE 336 160 304 160
WIRE 672 176 672 144
WIRE 672 320 672 272
WIRE 752 320 672 320
WIRE 672 368 672 320
WIRE 96 400 -112 400
FLAG -112 480 0
FLAG 96 400 VEE2
FLAG -112 320 VCC2
FLAG 608 224 VEE2
FLAG 672 448 0
FLAG 416 128 VEE2
FLAG 416 64 VCC2
FLAG 224 160 VEE2
FLAG 32 176 VEE2
SYMBOL voltage 32 80 R0
WINDOW 123 0 0 Left 0
WINDOW 39 0 0 Left 0
WINDOW 3 24 44 Left 2
SYMATTR Value SINE(2 1 50)
SYMATTR InstName VIN
SYMBOL voltage -112 384 R0
WINDOW 0 54 29 Left 2
WINDOW 3 50 56 Left 2
WINDOW 123 0 0 Left 0
WINDOW 39 0 0 Left 0
SYMATTR InstName V4
SYMATTR Value 50
SYMBOL pnp 608 272 M180
SYMATTR InstName Q1
SYMATTR Value 2N3906
SYMBOL voltage -112 304 R0
WINDOW 0 54 29 Left 2
WINDOW 3 50 56 Left 2
WINDOW 123 0 0 Left 0
WINDOW 39 0 0 Left 0
SYMATTR InstName V1
SYMATTR Value 15
SYMBOL res 656 352 R0
SYMATTR InstName R1
SYMATTR Value 10k
SYMBOL res 320 64 R90
WINDOW 0 0 56 VBottom 2
WINDOW 3 32 56 VTop 2
SYMATTR InstName R3
SYMATTR Value 10k
SYMBOL npn 608 48 R0
SYMATTR InstName Q2
SYMATTR Value 2N3904
SYMBOL res 320 144 R90
WINDOW 0 0 56 VBottom 2
WINDOW 3 32 56 VTop 2
SYMATTR InstName R2
SYMATTR Value 10k
SYMBOL OpAmps\\LT1006 416 32 R0
SYMATTR InstName U1
TEXT -336 -112 Left 2 !;dc V1 0 10 0.01
TEXT 136 320 Left 2 !.tran 0.1
TEXT 912 88 Left 2 ;Doesn't work. needs an actual floating current source.
