Version 4
SHEET 1 5720 1884
WIRE 592 -256 496 -256
WIRE 496 -240 496 -256
WIRE 704 -240 688 -240
WIRE 784 -240 704 -240
WIRE 704 -192 704 -240
WIRE 704 -192 576 -192
WIRE 928 -176 928 -192
WIRE 592 -160 592 -224
WIRE 704 -160 592 -160
WIRE 928 -160 928 -176
WIRE 496 -128 480 -128
WIRE 512 -128 496 -128
WIRE 576 -128 576 -192
WIRE 592 -128 576 -128
WIRE 704 -112 704 -160
WIRE 784 -112 704 -112
WIRE 496 -96 496 -128
WIRE 496 -96 352 -96
WIRE 592 -96 496 -96
WIRE 592 208 496 208
WIRE 496 224 496 208
WIRE 704 224 688 224
WIRE 784 224 704 224
WIRE 704 272 704 224
WIRE 704 272 576 272
WIRE 928 288 928 272
WIRE 592 304 592 240
WIRE 704 304 592 304
WIRE 928 304 928 288
WIRE 496 336 480 336
WIRE 512 336 496 336
WIRE 576 336 576 272
WIRE 592 336 576 336
WIRE 704 352 704 304
WIRE 704 352 688 352
WIRE 784 352 704 352
WIRE 496 368 496 336
WIRE 496 368 352 368
WIRE 592 368 496 368
FLAG -528 -80 0
FLAG -528 -160 VCC
FLAG -704 -64 0
FLAG -704 -144 P15V
FLAG 1008 -176 FSW
FLAG 928 -288 VCC
FLAG 928 -64 0
FLAG 352 -16 0
FLAG 928 176 VCC
FLAG 928 400 0
FLAG 352 448 0
SYMBOL voltage -528 -176 R0
WINDOW 123 0 0 Left 0
WINDOW 39 0 0 Left 0
WINDOW 3 48 40 Left 2
SYMATTR Value 5
SYMATTR InstName V2
SYMBOL voltage -704 -160 R0
WINDOW 123 0 0 Left 0
WINDOW 39 0 0 Left 0
WINDOW 3 48 40 Left 2
SYMATTR Value 15
SYMATTR InstName V4
SYMBOL res 880 -256 R90
WINDOW 0 0 56 VBottom 2
WINDOW 3 32 56 VTop 2
SYMATTR InstName R16
SYMATTR Value 1k
SYMBOL npn 864 -288 R0
SYMATTR InstName Q5
SYMATTR Value 2N3904
SYMBOL 74hc02 640 -304 R0
SYMATTR InstName U4
SYMBOL 74hc02 640 -176 R0
SYMATTR InstName U11
SYMBOL npn 864 -160 R0
SYMATTR InstName Q2
SYMATTR Value 2N3904
SYMBOL res 880 -128 R90
WINDOW 0 0 56 VBottom 2
WINDOW 3 32 56 VTop 2
SYMATTR InstName R4
SYMATTR Value 1k
SYMBOL res 1024 -192 R90
WINDOW 0 0 56 VBottom 2
WINDOW 3 32 56 VTop 2
SYMATTR InstName R8
SYMATTR Value 25R
SYMBOL 74hc02 432 -176 R270
SYMATTR InstName U3
SYMBOL voltage 352 -112 R0
WINDOW 123 0 0 Left 0
WINDOW 39 0 0 Left 0
WINDOW 3 -80 141 Left 2
SYMATTR Value PULSE(5 0 0 100n 100n 1ms 3ms 6)
SYMATTR InstName VIN1
SYMBOL res 880 208 R90
WINDOW 0 0 56 VBottom 2
WINDOW 3 32 56 VTop 2
SYMATTR InstName R1
SYMATTR Value 1k
SYMBOL npn 864 176 R0
SYMATTR InstName Q1
SYMATTR Value 2N3904
SYMBOL npn 864 304 R0
SYMATTR InstName Q3
SYMATTR Value 2N3904
SYMBOL res 880 336 R90
WINDOW 0 0 56 VBottom 2
WINDOW 3 32 56 VTop 2
SYMATTR InstName R2
SYMATTR Value 1k
SYMBOL res 1024 272 R90
WINDOW 0 0 56 VBottom 2
WINDOW 3 32 56 VTop 2
SYMATTR InstName R3
SYMATTR Value 25R
SYMBOL voltage 352 352 R0
WINDOW 123 0 0 Left 0
WINDOW 39 0 0 Left 0
WINDOW 3 -80 141 Left 2
SYMATTR Value PULSE(5 0 0 100n 100n 1ms 3ms 6)
SYMATTR InstName VIN2
SYMBOL 74hc00 640 288 R0
SYMATTR InstName U6
SYMBOL 74hc00 640 160 R0
SYMATTR InstName U1
SYMBOL 74hc00 432 288 R270
SYMATTR InstName U2
TEXT -168 -224 Left 2 !.tran 10ms
TEXT -208 -312 Left 2 !.include 74hc.lib
TEXT -184 -368 Left 2 !.include standard.bjt
TEXT -176 -272 Left 2 !.include LM311.301
TEXT -256 -136 Left 2 !.ic V(CRAMP)=0
TEXT 560 -280 Left 2 ;R
TEXT 560 -88 Left 2 ;S
TEXT 704 -280 Left 2 ;Q
TEXT 688 -88 Left 2 ;~Q
TEXT 544 80 Left 2 ;needs to be NOR. active lo. eg. when lo lo and off, can then turn\non other side.
TEXT 560 184 Left 2 ;R
TEXT 560 376 Left 2 ;S
TEXT 704 184 Left 2 ;Q
TEXT 688 376 Left 2 ;~Q
TEXT 600 552 Left 2 ;nand will overlap. the signals.
