Version 4
SHEET 1 2756 1020
WIRE -48 -16 -128 -16
WIRE -128 0 -128 -16
WIRE -48 0 -48 -16
WIRE 688 224 672 224
WIRE 768 224 688 224
WIRE 720 240 704 240
WIRE 896 320 768 320
WIRE 912 320 896 320
WIRE 480 336 384 336
WIRE 608 336 560 336
WIRE 704 336 704 240
WIRE 704 336 608 336
WIRE 704 400 704 336
WIRE 720 400 704 400
WIRE 768 512 768 416
FLAG -48 0 0
FLAG -128 -96 VCC2
FLAG -128 80 VEE2
FLAG 608 336 SW
FLAG 384 416 0
FLAG 896 320 CSW
FLAG 768 512 0
FLAG -16 224 0
FLAG -16 144 VCC
FLAG 688 224 VCC
SYMBOL voltage -128 -112 R0
WINDOW 123 0 0 Left 0
WINDOW 39 0 0 Left 0
WINDOW 3 42 41 Left 2
SYMATTR Value 18
SYMATTR InstName V1
SYMBOL voltage -128 -16 R0
WINDOW 123 0 0 Left 0
WINDOW 39 0 0 Left 0
WINDOW 0 36 39 Left 2
SYMATTR InstName V4
SYMATTR Value 18
SYMBOL voltage 384 320 R0
WINDOW 123 0 0 Left 0
WINDOW 39 0 0 Left 0
WINDOW 3 -80 141 Left 2
SYMATTR Value PULSE(0 5 0 100n 100n 0.02ms 0.04ms 70)
SYMATTR InstName VIN1
SYMBOL res 576 320 R90
WINDOW 0 0 56 VBottom 2
WINDOW 3 32 56 VTop 2
SYMATTR InstName R13
SYMATTR Value 2.5k
SYMBOL nmos 720 320 R0
SYMATTR InstName M1
SYMBOL pmos 720 320 M180
SYMATTR InstName M2
SYMBOL voltage -16 128 R0
WINDOW 123 0 0 Left 0
WINDOW 39 0 0 Left 0
WINDOW 3 42 41 Left 2
SYMATTR Value 5
SYMATTR InstName V2
TEXT 96 -120 Left 2 !.tran 3ms
TEXT 96 -40 Left 2 !.include 74hc.lib
