Version 4
SHEET 1 5720 1740
WIRE 1984 -192 1920 -192
WIRE 2320 -192 1984 -192
WIRE 2400 -192 2320 -192
WIRE 1312 -128 1152 -128
WIRE 1504 -128 1392 -128
WIRE 1920 -128 1744 -128
WIRE 2016 -128 1984 -128
WIRE 1984 -64 1920 -64
WIRE 2320 -64 2320 -128
WIRE 2400 -64 2400 -112
WIRE 2400 -64 2320 -64
WIRE 1824 -48 1744 -48
WIRE 2400 16 2320 16
WIRE 2016 32 2016 -128
WIRE 2016 32 1744 32
WIRE 2320 32 2320 16
WIRE 1984 96 1984 -64
WIRE 2320 96 1984 96
WIRE 2400 96 2320 96
WIRE 1504 144 1504 -48
FLAG 2400 -64 0
FLAG 1824 -48 0
FLAG 2400 16 0
FLAG 640 -256 0
FLAG 640 -336 VCC
FLAG 1152 -48 0
FLAG 1504 144 0
SYMBOL ind2 1728 -32 M180
WINDOW 0 36 80 Left 2
WINDOW 3 36 40 Left 2
SYMATTR InstName L3
SYMATTR Value 1m
SYMATTR Type ind
SYMBOL diode 1936 -128 R180
WINDOW 0 24 64 Left 2
WINDOW 3 24 0 Left 2
SYMATTR InstName D5
SYMBOL diode 2000 -128 R180
WINDOW 0 24 64 Left 2
WINDOW 3 24 0 Left 2
SYMATTR InstName D6
SYMBOL diode 1936 -64 R180
WINDOW 0 24 64 Left 2
WINDOW 3 24 0 Left 2
SYMATTR InstName D7
SYMBOL diode 2000 -64 R180
WINDOW 0 24 64 Left 2
WINDOW 3 24 0 Left 2
SYMATTR InstName D8
SYMBOL cap 2304 -192 R0
SYMATTR InstName C2
SYMATTR Value 1µ
SYMBOL res 2384 -208 R0
SYMATTR InstName R5
SYMATTR Value 350R
SYMBOL ind2 1728 48 M180
WINDOW 0 36 80 Left 2
WINDOW 3 36 40 Left 2
SYMATTR InstName L4
SYMATTR Value 1m
SYMATTR Type ind
SYMBOL cap 2304 32 R0
SYMATTR InstName C1
SYMATTR Value 1µ
SYMBOL res 2384 0 R0
SYMATTR InstName R3
SYMATTR Value 350R
SYMBOL voltage 640 -352 R0
WINDOW 123 0 0 Left 0
WINDOW 39 0 0 Left 0
WINDOW 3 40 42 Left 2
SYMATTR Value 15
SYMATTR InstName V1
SYMBOL ind2 1488 -144 R0
SYMATTR InstName L7
SYMATTR Value 1m
SYMATTR Type ind
SYMBOL voltage 1152 -144 R0
WINDOW 123 0 0 Left 0
WINDOW 39 0 0 Left 0
WINDOW 3 -294 -29 Left 2
SYMATTR Value PULSE(0 5 1us 10ns 10ns 25us 50us 20)
SYMATTR InstName V2
SYMBOL res 1408 -144 R90
WINDOW 0 0 56 VBottom 2
WINDOW 3 32 56 VTop 2
SYMATTR InstName R1
SYMATTR Value 0.1R
TEXT 576 -480 Left 2 !.tran 1.5ms
TEXT 1120 -496 Left 2 !K  L7 L3 L4  1
TEXT 560 -624 Left 2 !.include standard.bjt
TEXT 544 -696 Left 2 !.include my.lib
TEXT 568 -584 Left 2 !.include 74hc.lib
