Version 4
SHEET 1 5720 1740
WIRE 1328 -128 1152 -128
WIRE 1504 -128 1392 -128
WIRE 1936 -128 1664 -128
WIRE 1984 -128 1936 -128
WIRE 2384 -128 2048 -128
WIRE 2528 -128 2384 -128
WIRE 2928 -128 2528 -128
WIRE 2528 -80 2528 -128
WIRE 1664 32 1664 -48
WIRE 1888 32 1664 32
WIRE 1984 32 1888 32
WIRE 2048 32 2048 -128
WIRE 1152 128 1152 -48
WIRE 1440 128 1152 128
WIRE 1504 128 1504 -48
WIRE 1504 128 1440 128
WIRE 1504 144 1504 128
WIRE 2384 144 2384 -64
WIRE 2528 144 2528 0
WIRE 2528 144 2384 144
WIRE 1936 256 1936 -128
WIRE 1984 256 1936 256
WIRE 1888 384 1888 32
WIRE 1984 384 1888 384
WIRE 2048 384 2048 256
WIRE 2528 384 2528 144
WIRE 2528 384 2048 384
FLAG 640 -256 0
FLAG 640 -336 VCC
FLAG 2528 464 0
FLAG 1440 208 0
SYMBOL voltage 640 -352 R0
WINDOW 123 0 0 Left 0
WINDOW 39 0 0 Left 0
WINDOW 3 40 42 Left 2
SYMATTR Value 15
SYMATTR InstName V1
SYMBOL ind2 1520 -32 R180
WINDOW 0 36 80 Left 2
WINDOW 3 36 40 Left 2
SYMATTR InstName L1
SYMATTR Value 1m
SYMATTR Type ind
SYMBOL voltage 1152 -144 R0
WINDOW 123 0 0 Left 0
WINDOW 39 0 0 Left 0
WINDOW 3 -294 -29 Left 2
SYMATTR Value PULSE(-6.5 6.5 1us 10ns 10ns 25us 50us 40)
SYMATTR InstName V2
SYMBOL ind2 1648 -32 M180
WINDOW 0 36 80 Left 2
WINDOW 3 36 40 Left 2
SYMATTR InstName L2
SYMATTR Value 1m
SYMATTR Type ind
SYMBOL cap 2368 -128 R0
SYMATTR InstName C1
SYMATTR Value 10µ
SYMBOL current 2528 -80 R0
WINDOW 123 0 0 Left 0
WINDOW 39 0 0 Left 0
SYMATTR InstName I2
SYMATTR Value 100mA
SYMBOL schottky 1984 -112 R270
WINDOW 0 32 32 VTop 2
WINDOW 3 0 32 VBottom 2
SYMATTR InstName D4
SYMATTR Value SS12
SYMATTR Description Diode
SYMATTR Type diode
SYMBOL schottky 1984 48 R270
WINDOW 0 32 32 VTop 2
WINDOW 3 0 32 VBottom 2
SYMATTR InstName D3
SYMATTR Value SS12
SYMATTR Description Diode
SYMATTR Type diode
SYMBOL res 2512 368 R0
SYMATTR InstName R2
SYMATTR Value 1k
SYMBOL schottky 2048 240 R90
WINDOW 0 0 32 VBottom 2
WINDOW 3 32 32 VTop 2
SYMATTR InstName D1
SYMATTR Value SS12
SYMATTR Description Diode
SYMATTR Type diode
SYMBOL schottky 2048 368 R90
WINDOW 0 0 32 VBottom 2
WINDOW 3 32 32 VTop 2
SYMATTR InstName D2
SYMATTR Value SS12
SYMATTR Description Diode
SYMATTR Type diode
SYMBOL cap 1392 -144 R90
WINDOW 0 0 32 VBottom 2
WINDOW 3 32 32 VTop 2
SYMATTR InstName C2
SYMATTR Value 10µ
SYMBOL res 1424 112 R0
SYMATTR InstName R1
SYMATTR Value 1k
TEXT 576 -480 Left 2 !.tran 2.5ms
TEXT 1120 -496 Left 2 !K1  L1 L2  1
TEXT 560 -624 Left 2 !.include standard.bjt
TEXT 544 -696 Left 2 !.include my.lib
TEXT 568 -584 Left 2 !.include 74hc.lib
TEXT 872 -248 Left 2 ;+-5V. like a full bridg. == 10Vpp\nnow +-6V
