Version 4
SHEET 1 5720 1268
WIRE 128 48 0 48
WIRE 288 48 128 48
WIRE 448 48 288 48
WIRE 608 64 560 64
WIRE 448 80 336 80
WIRE 704 80 688 80
WIRE 1024 80 720 80
WIRE 0 96 0 48
WIRE 608 96 592 96
WIRE 1264 96 1136 96
WIRE 1360 96 1264 96
WIRE 592 128 592 96
WIRE 592 128 240 128
WIRE 1136 144 1136 96
WIRE 1136 144 1008 144
WIRE 1024 176 1024 112
WIRE 1136 176 1024 176
WIRE 1008 208 1008 144
WIRE 1024 208 1008 208
WIRE 1136 224 1136 176
WIRE 1168 224 1136 224
WIRE 1184 224 1168 224
WIRE 240 240 240 128
WIRE 816 272 736 272
WIRE 288 320 288 48
WIRE 352 320 288 320
WIRE 96 352 0 352
WIRE 240 352 96 352
WIRE 464 352 240 352
WIRE 736 352 736 272
WIRE 736 352 688 352
WIRE 752 352 736 352
WIRE 816 352 816 272
WIRE 1024 352 1024 240
WIRE 1024 352 816 352
WIRE 336 416 336 80
WIRE 464 416 336 416
WIRE 576 416 576 368
WIRE 0 496 0 352
WIRE 336 512 336 416
WIRE 1360 512 1360 96
WIRE 1360 512 336 512
FLAG 1264 96 Q
FLAG 336 80 Q
FLAG 128 48 LOCK
FLAG 1168 224 ~Q
FLAG -304 352 0
FLAG 96 352 SW-ON-CTL
FLAG 0 -32 P5V
FLAG 0 96 0
FLAG -304 272 P5V
FLAG 0 576 0
SYMBOL 74hc08 496 0 R0
SYMATTR InstName U1
SYMBOL 74hc02 1072 32 R0
SYMATTR InstName U2
SYMBOL 74hc02 1072 160 R0
SYMATTR InstName U4
SYMBOL 74hc08 624 288 R0
SYMATTR InstName U5
SYMBOL 74hc04 512 352 R0
SYMATTR InstName U6
SYMBOL 74hc04 400 256 R0
SYMATTR InstName U7
SYMBOL 74hc08 512 272 R0
SYMATTR InstName U8
SYMBOL res -16 -48 R0
SYMATTR InstName R1
SYMATTR Value 10k
SYMBOL voltage -304 256 R0
WINDOW 123 0 0 Left 0
WINDOW 39 0 0 Left 0
SYMATTR InstName V1
SYMATTR Value 5
SYMBOL 74hc32 656 16 R0
SYMATTR InstName U3
SYMBOL voltage 0 480 R0
WINDOW 123 0 0 Left 0
WINDOW 39 0 0 Left 0
WINDOW 3 -157 127 Left 2
SYMATTR Value PULSE(0 5 0 10ns 10ns 0.5ms 1ms 7)
SYMATTR InstName VIN1
SYMBOL 74hc04 176 304 R270
SYMATTR InstName U9
SYMBOL diode 816 336 R90
WINDOW 0 0 32 VBottom 2
WINDOW 3 32 32 VTop 2
SYMATTR InstName D1
TEXT -168 -224 Left 2 !.tran 10ms
TEXT -208 -312 Left 2 !.include 74hc.lib
TEXT 1136 56 Left 2 ;Q
TEXT 1120 248 Left 2 ;~Q
TEXT -288 -112 Left 2 !.ic V(Q)=5 V(~Q)=0
TEXT 984 0 Left 2 ;flip flop standing for latching relay
TEXT 928 56 Left 2 ;turn off
TEXT 920 328 Left 2 ;turn on
TEXT 680 248 Left 2 ;interlock pins 3,4
TEXT -224 80 Left 2 ;interlock pins 1,2
TEXT 520 -160 Left 2 ;Simpler approach - just use the diode. and fire an off pulse at startup/shutdown.\nor use fpga for the logic, and sense.
