Version 4
SHEET 1 2148 868
WIRE 0 -192 -224 -192
WIRE -704 -144 -784 -144
WIRE -784 -128 -784 -144
WIRE -704 -128 -704 -144
WIRE -384 -96 -384 -160
WIRE -352 -96 -384 -96
WIRE -352 -64 -352 -96
WIRE 0 -64 0 -192
WIRE 64 -64 0 -64
WIRE 208 -48 144 -48
WIRE 320 -48 320 -160
WIRE 320 -48 272 -48
WIRE 64 -32 -384 -32
WIRE 96 32 96 0
WIRE 1920 64 1744 64
WIRE 2000 64 1920 64
WIRE 752 160 752 144
WIRE 1104 160 1104 144
WIRE 1744 160 1744 64
WIRE 1920 160 1920 64
WIRE -528 192 -560 192
WIRE 64 192 -528 192
WIRE 208 208 144 208
WIRE 320 208 320 -48
WIRE 320 208 272 208
WIRE -528 224 -528 192
WIRE 64 224 0 224
WIRE 752 240 752 224
WIRE 1104 240 1104 224
WIRE 1744 240 1744 224
WIRE 1920 240 1920 224
WIRE 912 272 784 272
WIRE 1264 272 1136 272
WIRE 1712 272 1584 272
WIRE 2080 272 1952 272
WIRE -560 304 -560 256
WIRE 0 352 0 224
WIRE 0 352 -224 352
WIRE 752 352 752 304
WIRE 1104 352 1104 304
WIRE 1744 352 1744 304
WIRE 1920 352 1920 304
FLAG -704 -128 0
FLAG -784 -224 VCC
FLAG -784 -48 VEE
FLAG 80 256 0
FLAG 0 512 P3V3
FLAG 0 592 0
FLAG 96 256 0
FLAG -224 272 VCC
FLAG -224 432 0
FLAG 96 160 P3V3
FLAG 96 -96 P3V3
FLAG 80 0 0
FLAG 320 -240 P3V3
FLAG -224 -112 VEE
FLAG -560 304 0
FLAG -560 112 VCC
FLAG -224 -272 0
FLAG -384 48 VEE
FLAG -384 -160 0
FLAG 752 352 0
FLAG 752 64 VCC
FLAG 912 192 VCC
FLAG 912 352 0
FLAG 1104 64 0
FLAG 1264 192 0
FLAG 1104 352 VEE
FLAG 1264 352 VEE
FLAG 96 32 VEE
FLAG 1744 352 0
FLAG 1744 -16 VCC
FLAG 1584 192 VCC
FLAG 1584 352 0
FLAG 2080 192 0
FLAG 1920 352 VEE
FLAG 2080 352 VEE
FLAG 2000 128 0
SYMBOL voltage -784 -240 R0
WINDOW 123 0 0 Left 0
WINDOW 39 0 0 Left 0
WINDOW 3 40 42 Left 2
SYMATTR Value 15
SYMATTR InstName V2
SYMBOL voltage -784 -144 R0
WINDOW 123 0 0 Left 0
WINDOW 39 0 0 Left 0
WINDOW 0 36 39 Left 2
SYMATTR InstName V3
SYMATTR Value 10
SYMBOL voltage 0 496 R0
WINDOW 123 0 0 Left 0
WINDOW 39 0 0 Left 0
WINDOW 3 40 42 Left 2
SYMATTR Value 3.3
SYMATTR InstName V1
SYMBOL Comparators\\LT1011 96 208 R0
SYMATTR InstName U1
SYMBOL res -240 256 R0
SYMATTR InstName R2
SYMATTR Value 5k
SYMBOL res -240 336 R0
SYMATTR InstName R3
SYMATTR Value 1k
SYMBOL Comparators\\LT1011 96 -48 R0
SYMATTR InstName U2
SYMBOL res 304 -256 R0
SYMATTR InstName R4
SYMATTR Value 3.3k
SYMBOL res -240 -208 R0
SYMATTR InstName R5
SYMATTR Value 4k
SYMBOL res -240 -288 R0
SYMATTR InstName R6
SYMATTR Value 1k
SYMBOL TL431A -560 224 R0
SYMATTR InstName U3
SYMBOL res -576 96 R0
SYMATTR InstName R1
SYMATTR Value 20k
SYMBOL TL431A -384 -64 R0
WINDOW 3 52 22 Left 2
WINDOW 0 43 -4 Left 2
SYMATTR InstName U4
SYMBOL res -400 -48 R0
WINDOW 0 -61 52 Left 2
WINDOW 3 -66 86 Left 2
SYMATTR InstName R7
SYMATTR Value 20k
SYMBOL TL431A 752 272 R0
SYMATTR InstName U5
SYMBOL res 736 48 R0
SYMATTR InstName R9
SYMATTR Value 15k
SYMBOL res 896 176 R0
SYMATTR InstName R10
SYMATTR Value 4k
SYMBOL res 896 256 R0
SYMATTR InstName R11
SYMATTR Value 1k
SYMBOL LED 736 160 R0
SYMATTR InstName D2
SYMBOL TL431A 1104 272 R0
SYMATTR InstName U6
SYMBOL res 1088 48 R0
SYMATTR InstName R12
SYMATTR Value 15k
SYMBOL res 1248 176 R0
SYMATTR InstName R13
SYMATTR Value 4k
SYMBOL res 1248 256 R0
SYMATTR InstName R14
SYMATTR Value 1k
SYMBOL LED 1088 160 R0
SYMATTR InstName D1
SYMBOL diode 272 -64 R90
WINDOW 0 0 32 VBottom 2
WINDOW 3 32 32 VTop 2
SYMATTR InstName D3
SYMBOL diode 272 192 R90
WINDOW 0 0 32 VBottom 2
WINDOW 3 32 32 VTop 2
SYMATTR InstName D4
SYMBOL TL431A 1744 272 M0
SYMATTR InstName U7
SYMBOL res 1760 -32 M0
SYMATTR InstName R8
SYMATTR Value 15k
SYMBOL res 1600 176 M0
SYMATTR InstName R15
SYMATTR Value 4k
SYMBOL res 1600 256 M0
SYMATTR InstName R16
SYMATTR Value 1k
SYMBOL LED 1760 160 M0
SYMATTR InstName D5
SYMBOL TL431A 1920 272 R0
SYMATTR InstName U8
SYMBOL res 2064 176 R0
SYMATTR InstName R18
SYMATTR Value 4k
SYMBOL res 2064 256 R0
SYMATTR InstName R19
SYMATTR Value 1k
SYMBOL LED 1904 160 R0
SYMATTR InstName D6
SYMBOL diode 2016 128 R180
WINDOW 0 24 64 Left 2
WINDOW 3 24 0 Left 2
SYMATTR InstName D7
TEXT -600 456 Left 2 !.tran 3ms
TEXT 256 288 Left 2 ;OUT is high if + > -.
TEXT 904 -104 Left 2 ;separate positive rail, and negative rail. detectors.
TEXT -64 48 Left 2 ;must be -vee
TEXT -496 -488 Left 2 ;this can probably be made to work.\nissue is with lm399. what gnd to we pull to.
TEXT 880 -144 Left 2 ;We can combine signals by using diodes.
TEXT 1800 -80 Left 2 ;doesn't work.
