Version 4
SHEET 1 5720 1740
WIRE -992 -288 -992 -352
WIRE -992 -288 -1136 -288
WIRE -992 -272 -992 -288
WIRE -1136 -192 -1136 -288
WIRE -992 -176 -992 -192
WIRE -896 -176 -992 -176
WIRE -992 -160 -992 -176
WIRE -1136 -112 -1264 -112
WIRE -1056 -112 -1136 -112
WIRE -64 -112 -128 -112
WIRE 272 -112 -64 -112
WIRE 352 -112 272 -112
WIRE -896 -96 -896 -176
WIRE -128 -48 -288 -48
WIRE -32 -48 -64 -48
WIRE -992 -32 -992 -64
WIRE -896 -32 -992 -32
WIRE -624 -32 -896 -32
WIRE -496 -32 -560 -32
WIRE -400 -32 -432 -32
WIRE -64 16 -128 16
WIRE 272 16 272 -48
WIRE 352 16 352 -32
WIRE 352 16 272 16
WIRE -1264 80 -1264 -48
WIRE -1136 80 -1136 -32
WIRE -1136 80 -1264 80
WIRE -992 80 -992 48
WIRE -992 80 -1136 80
WIRE -896 80 -896 32
WIRE -896 80 -992 80
WIRE -1136 112 -1136 80
WIRE -288 112 -288 32
WIRE -32 112 -32 -48
WIRE -32 112 -288 112
WIRE -64 256 -64 16
FLAG -880 -480 0
FLAG -880 -560 VCC
FLAG 352 16 0
FLAG -64 256 0
FLAG -992 -352 VCC
FLAG -1136 112 0
FLAG -608 -64 VCC
FLAG -592 0 0
FLAG -400 48 0
FLAG -576 -144 VCC
SYMBOL voltage -880 -576 R0
WINDOW 123 0 0 Left 0
WINDOW 39 0 0 Left 0
WINDOW 3 48 40 Left 2
SYMATTR Value 9
SYMATTR InstName V2
SYMBOL ind2 -304 48 M180
WINDOW 0 36 80 Left 2
WINDOW 3 36 40 Left 2
SYMATTR InstName L3
SYMATTR Value 16m
SYMATTR Type ind
SYMBOL diode -112 -48 R180
WINDOW 0 24 64 Left 2
WINDOW 3 24 0 Left 2
SYMATTR InstName D5
SYMBOL diode -48 -48 R180
WINDOW 0 24 64 Left 2
WINDOW 3 24 0 Left 2
SYMATTR InstName D6
SYMBOL diode -112 16 R180
WINDOW 0 24 64 Left 2
WINDOW 3 24 0 Left 2
SYMATTR InstName D7
SYMBOL diode -48 16 R180
WINDOW 0 24 64 Left 2
WINDOW 3 24 0 Left 2
SYMATTR InstName D8
SYMBOL cap 256 -112 R0
SYMATTR InstName C2
SYMATTR Value 1µ
SYMBOL res 336 -128 R0
SYMATTR InstName R5
SYMATTR Value 1k
SYMBOL ind2 -976 -176 R180
WINDOW 0 36 80 Left 2
WINDOW 3 36 40 Left 2
SYMATTR InstName L6
SYMATTR Value 1m
SYMATTR Type ind
SYMBOL res -1152 -208 R0
SYMATTR InstName R6
SYMATTR Value 100k
SYMBOL res -1152 -128 R0
SYMATTR InstName R7
SYMATTR Value 100k
SYMBOL npn -1056 -160 R0
SYMATTR InstName Q1
SYMATTR Value 2N3904
SYMBOL cap -912 -32 R0
WINDOW 0 49 32 Left 2
WINDOW 3 45 59 Left 2
SYMATTR InstName C10
SYMATTR Value 50n
SYMBOL cap -912 -96 R0
WINDOW 0 52 5 Left 2
WINDOW 3 48 39 Left 2
SYMATTR InstName C11
SYMATTR Value 50n
SYMBOL res -1008 -48 R0
SYMATTR InstName R8
SYMATTR Value 10k
SYMBOL cap -1280 -112 R0
SYMATTR InstName C12
SYMATTR Value 1µ
SYMBOL ind2 -416 64 M180
WINDOW 0 36 80 Left 2
WINDOW 3 36 40 Left 2
SYMATTR InstName L1
SYMATTR Value 1m
SYMATTR Type ind
SYMBOL OpAmps\\LT1010 -592 -96 R0
SYMATTR InstName U1
SYMBOL res -592 -160 R0
SYMATTR InstName R3
SYMATTR Value 50R
SYMBOL cap -432 -48 R90
WINDOW 0 0 32 VBottom 2
WINDOW 3 32 32 VTop 2
SYMATTR InstName C1
SYMATTR Value 330µ
TEXT -560 -408 Left 2 !K L1 L3 0.99.5
TEXT -1368 -504 Left 2 !.tran 100m
TEXT 24 -448 Left 2 ;behavior depends a lot on load. \n50R. good.  with 100n. \n100R,    want 2u.\nAlso. depends on transformer secondary inductance
TEXT -1984 -376 Left 2 ;from wikipedia. works but waveform is somewhat distorted.\nOK. waveform much better, if increse emitter degen from 2.2k to 10k.\nnote - voltage output is double VCC. because tank
