Version 4
SHEET 1 5720 1740
WIRE -992 -288 -992 -352
WIRE -992 -288 -1136 -288
WIRE -992 -272 -992 -288
WIRE -1136 -192 -1136 -288
WIRE -992 -176 -992 -192
WIRE -896 -176 -992 -176
WIRE -992 -160 -992 -176
WIRE -1136 -112 -1264 -112
WIRE -1056 -112 -1136 -112
WIRE -64 -112 -128 -112
WIRE 96 -112 -64 -112
WIRE 176 -112 96 -112
WIRE -896 -96 -896 -176
WIRE -128 -48 -288 -48
WIRE -32 -48 -64 -48
WIRE -992 -32 -992 -64
WIRE -896 -32 -992 -32
WIRE -64 16 -128 16
WIRE 96 16 96 -48
WIRE 176 16 176 -32
WIRE 176 16 96 16
WIRE -624 48 -992 48
WIRE -496 48 -560 48
WIRE -400 48 -432 48
WIRE -288 112 -288 32
WIRE -32 112 -32 -48
WIRE -32 112 -288 112
WIRE -1264 160 -1264 -48
WIRE -1136 160 -1136 -32
WIRE -1136 160 -1264 160
WIRE -992 160 -992 128
WIRE -992 160 -1136 160
WIRE -896 160 -896 32
WIRE -896 160 -992 160
WIRE -1136 192 -1136 160
WIRE -64 256 -64 16
FLAG -880 -480 0
FLAG -880 -560 VCC
FLAG 176 16 0
FLAG -64 256 0
FLAG -992 -352 VCC
FLAG -1136 192 0
FLAG -400 128 0
FLAG -608 16 VCC
FLAG -592 80 0
FLAG -576 -64 VCC
SYMBOL voltage -880 -576 R0
WINDOW 123 0 0 Left 0
WINDOW 39 0 0 Left 0
WINDOW 3 48 40 Left 2
SYMATTR Value 9
SYMATTR InstName V2
SYMBOL ind2 -304 48 M180
WINDOW 0 36 80 Left 2
WINDOW 3 36 40 Left 2
SYMATTR InstName L3
SYMATTR Value 40m
SYMATTR Type ind
SYMBOL diode -112 -48 R180
WINDOW 0 24 64 Left 2
WINDOW 3 24 0 Left 2
SYMATTR InstName D5
SYMBOL diode -48 -48 R180
WINDOW 0 24 64 Left 2
WINDOW 3 24 0 Left 2
SYMATTR InstName D6
SYMBOL diode -112 16 R180
WINDOW 0 24 64 Left 2
WINDOW 3 24 0 Left 2
SYMATTR InstName D7
SYMBOL diode -48 16 R180
WINDOW 0 24 64 Left 2
WINDOW 3 24 0 Left 2
SYMATTR InstName D8
SYMBOL cap 80 -112 R0
SYMATTR InstName C2
SYMATTR Value 1µ
SYMBOL res 160 -128 R0
SYMATTR InstName R5
SYMATTR Value 10k
SYMBOL ind2 -976 -176 R180
WINDOW 0 36 80 Left 2
WINDOW 3 36 40 Left 2
SYMATTR InstName L6
SYMATTR Value 1m
SYMATTR Type ind
SYMBOL res -1152 -208 R0
SYMATTR InstName R6
SYMATTR Value 100k
SYMBOL res -1152 -128 R0
SYMATTR InstName R7
SYMATTR Value 100k
SYMBOL npn -1056 -160 R0
SYMATTR InstName Q1
SYMATTR Value 2N3904
SYMBOL cap -912 -32 R0
WINDOW 0 49 32 Left 2
WINDOW 3 45 59 Left 2
SYMATTR InstName C10
SYMATTR Value 50n
SYMBOL cap -912 -96 R0
WINDOW 0 52 5 Left 2
WINDOW 3 48 39 Left 2
SYMATTR InstName C11
SYMATTR Value 50n
SYMBOL res -1008 -48 R0
SYMATTR InstName R8
SYMATTR Value 1k
SYMBOL cap -1280 -112 R0
SYMATTR InstName C12
SYMATTR Value 1µ
SYMBOL ind2 -416 144 M180
WINDOW 0 36 80 Left 2
WINDOW 3 36 40 Left 2
SYMATTR InstName L1
SYMATTR Value 2m
SYMATTR Type ind
SYMBOL cap -432 32 R90
WINDOW 0 0 32 VBottom 2
WINDOW 3 32 32 VTop 2
SYMATTR InstName C1
SYMATTR Value 100µ
SYMBOL OpAmps\\LT1010 -592 -16 R0
WINDOW 3 -39 147 Left 2
SYMATTR InstName U2
SYMBOL res -592 -80 R0
SYMATTR InstName R1
SYMATTR Value 50R
SYMBOL res -1008 32 R0
SYMATTR InstName R2
SYMATTR Value 9k
TEXT -560 -408 Left 2 !K L1 L3 0.99.5
TEXT -1368 -504 Left 2 !.tran 60m
TEXT -1984 -376 Left 2 ;from wikipedia. works but waveform is somewhat distorted.\nOK. waveform much better, if increse emitter degen from 2.2k to 10k.\nnote - voltage output is double VCC. because tank
TEXT -1752 344 Left 2 ;the blocking cap and inductor cutoff freq needs to be below\nthe driving sin wave. else it distorts the wave form.\nbut the smaller cap then blocks the power transferred.\n- actually inductor needs to be large enough to block.\n- if 100u, we have +-200mA current not blocked.\n- 2m for inductance is much better than 1.
