Version 4
SHEET 1 4612 1320
WIRE 208 208 208 192
WIRE 384 208 208 208
WIRE 624 208 624 192
WIRE 800 208 624 208
WIRE 208 256 208 208
WIRE 624 256 624 208
WIRE 384 288 240 288
WIRE 800 288 656 288
WIRE 0 320 -112 320
WIRE 208 384 208 320
WIRE 624 384 624 320
FLAG 0 320 0
FLAG -112 400 VEE2
FLAG -112 240 VCC2
FLAG 208 112 VCC2
FLAG 208 384 0
FLAG 384 368 0
FLAG 624 112 VCC2
FLAG 624 384 0
FLAG 800 368 0
SYMBOL voltage -112 304 R0
WINDOW 0 54 29 Left 2
WINDOW 3 50 56 Left 2
WINDOW 123 0 0 Left 0
WINDOW 39 0 0 Left 0
SYMATTR InstName V1
SYMATTR Value 15
SYMBOL voltage -112 224 R0
WINDOW 0 54 29 Left 2
WINDOW 3 50 56 Left 2
WINDOW 123 0 0 Left 0
WINDOW 39 0 0 Left 0
SYMATTR InstName V2
SYMATTR Value 15
SYMBOL TL431ti 208 288 R0
SYMATTR InstName U3
SYMBOL res 192 96 R0
SYMATTR InstName RDUT1
SYMATTR Value 10k
SYMBOL res 368 192 R0
SYMATTR InstName RDUT2
SYMATTR Value 10k
SYMBOL res 368 272 R0
SYMATTR InstName RDUT3
SYMATTR Value 10k
SYMBOL res 608 96 R0
SYMATTR InstName RDUT4
SYMATTR Value 10k
SYMBOL res 784 192 R0
SYMATTR InstName RDUT5
SYMATTR Value 10k
SYMBOL res 784 272 R0
SYMATTR InstName RDUT6
SYMATTR Value 10k
SYMBOL TL431A 624 288 R0
SYMATTR InstName U4
