Version 4
SHEET 1 5720 1740
WIRE 768 -80 720 -80
WIRE 864 -80 848 -80
WIRE 1936 -32 1088 -32
WIRE 1968 -32 1936 -32
WIRE 1088 16 1088 -32
WIRE 1632 16 1568 16
WIRE 352 32 288 32
WIRE 720 32 720 -80
WIRE 1248 32 1200 32
WIRE 1792 32 1744 32
WIRE 480 48 416 48
WIRE 640 48 480 48
WIRE 864 48 864 -80
WIRE 864 48 832 48
WIRE 976 48 864 48
WIRE 1024 48 976 48
WIRE 1088 48 1024 48
WIRE 1456 48 1360 48
WIRE 1632 48 1456 48
WIRE 2016 48 1904 48
WIRE 176 64 96 64
WIRE 192 64 176 64
WIRE 352 64 192 64
WIRE 720 96 720 64
WIRE 864 96 720 96
WIRE 1248 96 1248 64
WIRE 1392 96 1248 96
WIRE 1792 96 1792 64
WIRE 1936 96 1792 96
WIRE 832 112 832 48
WIRE 832 112 720 112
WIRE 1360 112 1360 48
WIRE 1360 112 1248 112
WIRE 1904 112 1904 48
WIRE 1904 112 1792 112
WIRE 288 128 288 32
WIRE 720 144 720 112
WIRE 1248 144 1248 112
WIRE 1792 144 1792 112
WIRE 864 160 864 96
WIRE 864 160 832 160
WIRE 1024 160 1024 48
WIRE 1088 160 1024 160
WIRE 1392 160 1392 96
WIRE 1392 160 1360 160
WIRE 1456 160 1392 160
WIRE 1632 160 1456 160
WIRE 1936 160 1936 96
WIRE 1936 160 1904 160
WIRE 1968 160 1968 -32
WIRE 1968 160 1936 160
WIRE 640 176 640 48
WIRE 720 176 640 176
WIRE 1248 176 1200 176
WIRE 1792 176 1744 176
WIRE 192 192 192 64
WIRE 1568 192 1568 16
WIRE 1632 192 1568 192
WIRE 1088 256 1088 192
WIRE 1936 256 1088 256
WIRE 2016 256 2016 48
WIRE 2016 256 1936 256
WIRE 1024 320 1024 160
WIRE 1280 320 1024 320
WIRE 1568 320 1568 192
WIRE 1568 320 1392 320
FLAG -416 176 0
FLAG -416 96 VCC
FLAG 192 288 0
FLAG 96 128 0
FLAG 416 64 0
FLAG 384 16 VCC
FLAG 480 -32 VCC
FLAG 288 208 0
FLAG 16 64 VCC
FLAG 176 64 CRAMP
FLAG 976 48 QRST
FLAG 640 48 RST
FLAG 656 -80 0
FLAG 384 80 0
FLAG 48 240 QRST
FLAG 1936 -32 C
FLAG 1936 256 D
FLAG 1456 48 A
FLAG 1456 160 B
SYMBOL voltage -416 80 R0
WINDOW 123 0 0 Left 0
WINDOW 39 0 0 Left 0
WINDOW 3 48 40 Left 2
SYMATTR Value 5
SYMATTR InstName V2
SYMBOL res 112 48 R90
WINDOW 0 0 56 VBottom 2
WINDOW 3 32 56 VTop 2
SYMATTR InstName R8
SYMATTR Value 10k
SYMBOL cap 80 64 R0
SYMATTR InstName C4
SYMATTR Value 1.5n
SYMBOL npn 128 192 R0
SYMATTR InstName Q4
SYMBOL res 144 224 R90
WINDOW 0 0 56 VBottom 2
WINDOW 3 32 56 VTop 2
SYMATTR InstName R11
SYMATTR Value 100R
SYMBOL res 464 -48 R0
SYMATTR InstName R12
SYMATTR Value 3.3k
SYMBOL voltage 288 112 R0
WINDOW 123 0 0 Left 0
WINDOW 39 0 0 Left 0
WINDOW 3 48 40 Left 2
SYMATTR Value 1V
SYMATTR InstName V6
SYMBOL res 864 -96 R90
WINDOW 0 0 56 VBottom 2
WINDOW 3 32 56 VTop 2
SYMATTR InstName R4
SYMATTR Value 10k
SYMBOL xcomp_x11 384 -16 R0
SYMATTR InstName U11
SYMATTR Value LM311
SYMBOL 74hc02 768 -16 R0
SYMATTR InstName U4
SYMBOL 74hc02 768 96 R0
SYMATTR InstName U10
SYMBOL cap 720 -96 R90
WINDOW 0 0 32 VBottom 2
WINDOW 3 32 32 VTop 2
SYMATTR InstName C3
SYMATTR Value 20p
SYMBOL 74hc04 1328 256 R0
SYMATTR InstName U12
SYMBOL 74hc08 1136 -32 R0
SYMATTR InstName U1
SYMBOL 74hc08 1136 112 R0
SYMATTR InstName U2
SYMBOL 74hc08 1680 -32 R0
SYMATTR InstName U6
SYMBOL 74hc08 1680 112 R0
SYMATTR InstName U7
SYMBOL 74hc02 1296 -16 R0
SYMATTR InstName U3
SYMBOL 74hc02 1296 96 R0
SYMATTR InstName U5
SYMBOL 74hc02 1840 -16 R0
SYMATTR InstName U8
SYMBOL 74hc02 1840 96 R0
SYMATTR InstName U9
TEXT -488 -336 Left 2 !.tran 0.1ms
TEXT -528 -424 Left 2 !.include 74hc.lib
TEXT -504 -480 Left 2 !.include standard.bjt
TEXT -496 -384 Left 2 !.include LM311.301
TEXT 688 184 Left 2 ;S
TEXT 688 8 Left 2 ;R
TEXT 832 8 Left 2 ;Q
TEXT 824 184 Left 2 ;~Q
TEXT -512 -224 Left 2 !.ic V(QRST)=0
TEXT -504 -176 Left 2 !.ic V(RST)=5
TEXT 1760 184 Left 2 ;S
TEXT 1760 8 Left 2 ;R
TEXT 1904 8 Left 2 ;Q
TEXT 1896 184 Left 2 ;~Q
TEXT -512 -56 Left 2 !.ic V(A)=0V V(B)=5V V(C)=0V V(D)=5V
TEXT 1216 184 Left 2 ;S
TEXT 1216 8 Left 2 ;R
TEXT 1360 8 Left 2 ;Q
TEXT 1352 184 Left 2 ;~Q
TEXT 1280 -144 Left 2 ;master slave flip-flop.\nhttps://dcaclab.com/blog/j-k-flip-flop-explained-in-detail/
TEXT 1280 -256 Left 2 ;and/nor. j/k master/slave.  works.
