Version 4
SHEET 1 5720 1740
WIRE 768 -80 720 -80
WIRE 864 -80 848 -80
WIRE 1264 -64 1152 -64
WIRE 1664 -64 1264 -64
WIRE 1152 16 1152 -64
WIRE 352 32 288 32
WIRE 720 32 720 -80
WIRE 1408 32 1264 32
WIRE 480 48 416 48
WIRE 640 48 480 48
WIRE 864 48 864 -80
WIRE 864 48 832 48
WIRE 976 48 864 48
WIRE 1152 48 976 48
WIRE 1600 48 1520 48
WIRE 176 64 96 64
WIRE 192 64 176 64
WIRE 352 64 192 64
WIRE 720 96 720 64
WIRE 864 96 720 96
WIRE 1408 96 1408 64
WIRE 1552 96 1408 96
WIRE 832 112 832 48
WIRE 832 112 720 112
WIRE 1520 112 1520 48
WIRE 1520 112 1408 112
WIRE 288 128 288 32
WIRE 720 144 720 112
WIRE 1408 144 1408 112
WIRE 864 160 864 96
WIRE 864 160 832 160
WIRE 1152 160 1152 48
WIRE 1552 160 1552 96
WIRE 1552 160 1520 160
WIRE 1664 160 1664 -64
WIRE 1664 160 1552 160
WIRE 640 176 640 48
WIRE 720 176 640 176
WIRE 1408 176 1264 176
WIRE 192 192 192 64
WIRE 1152 272 1152 192
WIRE 1392 272 1152 272
WIRE 1600 272 1600 48
WIRE 1600 272 1392 272
FLAG -704 256 0
FLAG -704 176 VCC
FLAG 192 288 0
FLAG 96 128 0
FLAG 416 64 0
FLAG 384 16 VCC
FLAG 480 -32 VCC
FLAG 288 208 0
FLAG 16 64 VCC
FLAG 176 64 CRAMP
FLAG 976 48 QRST
FLAG 640 48 RST
FLAG 656 -80 0
FLAG 384 80 0
FLAG 48 240 QRST
FLAG 1264 -64 QJK
FLAG 1392 272 JK
SYMBOL voltage -704 160 R0
WINDOW 123 0 0 Left 0
WINDOW 39 0 0 Left 0
WINDOW 3 48 40 Left 2
SYMATTR Value 5
SYMATTR InstName V2
SYMBOL res 112 48 R90
WINDOW 0 0 56 VBottom 2
WINDOW 3 32 56 VTop 2
SYMATTR InstName R8
SYMATTR Value 10k
SYMBOL cap 80 64 R0
SYMATTR InstName C4
SYMATTR Value 1.5n
SYMBOL npn 128 192 R0
SYMATTR InstName Q4
SYMBOL res 144 224 R90
WINDOW 0 0 56 VBottom 2
WINDOW 3 32 56 VTop 2
SYMATTR InstName R11
SYMATTR Value 100R
SYMBOL res 464 -48 R0
SYMATTR InstName R12
SYMATTR Value 3.3k
SYMBOL voltage 288 112 R0
WINDOW 123 0 0 Left 0
WINDOW 39 0 0 Left 0
WINDOW 3 48 40 Left 2
SYMATTR Value 1V
SYMATTR InstName V6
SYMBOL res 864 -96 R90
WINDOW 0 0 56 VBottom 2
WINDOW 3 32 56 VTop 2
SYMATTR InstName R4
SYMATTR Value 10k
SYMBOL xcomp_x11 384 -16 R0
SYMATTR InstName U11
SYMATTR Value LM311
SYMBOL 74hc02 768 -16 R0
SYMATTR InstName U4
SYMBOL 74hc02 768 96 R0
SYMATTR InstName U10
SYMBOL cap 720 -96 R90
WINDOW 0 0 32 VBottom 2
WINDOW 3 32 32 VTop 2
SYMATTR InstName C3
SYMATTR Value 20p
SYMBOL 74hc08 1200 -32 R0
SYMATTR InstName U1
SYMBOL 74hc08 1200 112 R0
SYMATTR InstName U2
SYMBOL 74hc02 1456 -16 R0
SYMATTR InstName U3
SYMBOL 74hc02 1456 96 R0
SYMATTR InstName U5
TEXT -168 -224 Left 2 !.tran 0.5ms
TEXT -208 -312 Left 2 !.include 74hc.lib
TEXT -184 -368 Left 2 !.include standard.bjt
TEXT -176 -272 Left 2 !.include LM311.301
TEXT 688 184 Left 2 ;S
TEXT 688 8 Left 2 ;R
TEXT 832 8 Left 2 ;Q
TEXT 824 184 Left 2 ;~Q
TEXT -512 -224 Left 2 !.ic V(QRST)=0
TEXT -504 -176 Left 2 !.ic V(RST)=5
TEXT 1376 184 Left 2 ;S
TEXT 1376 8 Left 2 ;R
TEXT 1520 8 Left 2 ;Q
TEXT 1512 184 Left 2 ;~Q
TEXT -512 -56 Left 2 !.ic V(QJK)=0V V(JK)=5V
TEXT 1216 -376 Left 2 ;doesn't work
