Version 4
SHEET 1 5720 1740
WIRE 1936 -32 1088 -32
WIRE 1968 -32 1936 -32
WIRE 1088 16 1088 -32
WIRE 1632 16 1568 16
WIRE 1248 32 1200 32
WIRE 1792 32 1744 32
WIRE 1088 48 1024 48
WIRE 1456 48 1360 48
WIRE 1632 48 1456 48
WIRE 2016 48 1904 48
WIRE 1248 96 1248 64
WIRE 1392 96 1248 96
WIRE 1792 96 1792 64
WIRE 1936 96 1792 96
WIRE 1360 112 1360 48
WIRE 1360 112 1248 112
WIRE 1904 112 1904 48
WIRE 1904 112 1792 112
WIRE 1248 144 1248 112
WIRE 1792 144 1792 112
WIRE 1024 160 1024 48
WIRE 1088 160 1024 160
WIRE 1392 160 1392 96
WIRE 1392 160 1360 160
WIRE 1456 160 1392 160
WIRE 1632 160 1456 160
WIRE 1936 160 1936 96
WIRE 1936 160 1904 160
WIRE 1968 160 1968 -32
WIRE 1968 160 1936 160
WIRE 1248 176 1200 176
WIRE 1792 176 1744 176
WIRE 640 192 592 192
WIRE 736 192 720 192
WIRE 1568 192 1568 16
WIRE 1632 192 1568 192
WIRE 1088 256 1088 192
WIRE 1936 256 1088 256
WIRE 2016 256 2016 48
WIRE 2016 256 1936 256
WIRE 224 304 160 304
WIRE 592 304 592 192
WIRE 352 320 288 320
WIRE 512 320 352 320
WIRE 736 320 736 192
WIRE 736 320 704 320
WIRE 896 320 736 320
WIRE 912 320 896 320
WIRE 1024 320 1024 160
WIRE 1280 320 1024 320
WIRE 1568 320 1568 192
WIRE 1568 320 1392 320
WIRE 48 336 -32 336
WIRE 64 336 48 336
WIRE 224 336 64 336
WIRE 592 368 592 336
WIRE 736 368 592 368
WIRE 704 384 704 320
WIRE 704 384 592 384
WIRE 160 400 160 304
WIRE 592 416 592 384
WIRE 736 432 736 368
WIRE 736 432 704 432
WIRE 512 448 512 320
WIRE 592 448 512 448
WIRE 64 464 64 336
FLAG -416 176 0
FLAG -416 96 VCC
FLAG 64 560 0
FLAG -32 400 0
FLAG 288 336 0
FLAG 256 288 VCC
FLAG 352 240 VCC
FLAG 160 480 0
FLAG -112 336 VCC
FLAG 48 336 CRAMP
FLAG 896 320 QRST
FLAG 512 320 RST
FLAG 528 192 0
FLAG 256 352 0
FLAG -80 512 QRST
FLAG 1936 -32 C
FLAG 1936 256 D
FLAG 1456 48 A
FLAG 1456 160 B
SYMBOL voltage -416 80 R0
WINDOW 123 0 0 Left 0
WINDOW 39 0 0 Left 0
WINDOW 3 48 40 Left 2
SYMATTR Value 5
SYMATTR InstName V2
SYMBOL res -16 320 R90
WINDOW 0 0 56 VBottom 2
WINDOW 3 32 56 VTop 2
SYMATTR InstName R8
SYMATTR Value 10k
SYMBOL cap -48 336 R0
SYMATTR InstName C4
SYMATTR Value 1.5n
SYMBOL npn 0 464 R0
SYMATTR InstName Q4
SYMBOL res 16 496 R90
WINDOW 0 0 56 VBottom 2
WINDOW 3 32 56 VTop 2
SYMATTR InstName R11
SYMATTR Value 100R
SYMBOL res 336 224 R0
SYMATTR InstName R12
SYMATTR Value 3.3k
SYMBOL voltage 160 384 R0
WINDOW 123 0 0 Left 0
WINDOW 39 0 0 Left 0
WINDOW 3 48 40 Left 2
SYMATTR Value 1V
SYMATTR InstName V6
SYMBOL res 736 176 R90
WINDOW 0 0 56 VBottom 2
WINDOW 3 32 56 VTop 2
SYMATTR InstName R4
SYMATTR Value 10k
SYMBOL xcomp_x11 256 256 R0
SYMATTR InstName U11
SYMATTR Value LM311
SYMBOL 74hc02 640 256 R0
SYMATTR InstName U4
SYMBOL 74hc02 640 368 R0
SYMATTR InstName U10
SYMBOL cap 592 176 R90
WINDOW 0 0 32 VBottom 2
WINDOW 3 32 32 VTop 2
SYMATTR InstName C3
SYMATTR Value 20p
SYMBOL 74hc00 1680 -32 R0
SYMATTR InstName U1
SYMBOL 74hc00 1680 112 R0
SYMATTR InstName U2
SYMBOL 74hc00 1840 -16 R0
SYMATTR InstName U3
SYMBOL 74hc00 1840 96 R0
SYMATTR InstName U5
SYMBOL 74hc00 1136 -32 R0
SYMATTR InstName U6
SYMBOL 74hc00 1136 112 R0
SYMATTR InstName U7
SYMBOL 74hc00 1296 -16 R0
SYMATTR InstName U8
SYMBOL 74hc00 1296 96 R0
SYMATTR InstName U9
SYMBOL 74hc04 1328 256 R0
SYMATTR InstName U12
SYMBOL 74hc04 960 256 R0
SYMATTR InstName U13
TEXT -488 -336 Left 2 !.tran 0.1ms
TEXT -528 -424 Left 2 !.include 74hc.lib
TEXT -504 -480 Left 2 !.include standard.bjt
TEXT -496 -384 Left 2 !.include LM311.301
TEXT 560 456 Left 2 ;S
TEXT 560 280 Left 2 ;R
TEXT 704 280 Left 2 ;Q
TEXT 696 456 Left 2 ;~Q
TEXT -512 -224 Left 2 !.ic V(QRST)=0
TEXT -504 -176 Left 2 !.ic V(RST)=5
TEXT 1760 184 Left 2 ;S
TEXT 1760 8 Left 2 ;R
TEXT 1904 8 Left 2 ;Q
TEXT 1896 184 Left 2 ;~Q
TEXT -512 -56 Left 2 !.ic V(A)=0V V(B)=5V V(C)=0V V(D)=5V
TEXT 1216 184 Left 2 ;S
TEXT 1216 8 Left 2 ;R
TEXT 1360 8 Left 2 ;Q
TEXT 1352 184 Left 2 ;~Q
TEXT 1280 -256 Left 2 ;Works.  positive-edge triggered. (just add an inverter)
