Version 4
SHEET 1 1768 872
WIRE -224 -144 -368 -144
WIRE 112 -144 -224 -144
WIRE 608 -144 448 -144
WIRE 832 -144 704 -144
WIRE -224 -112 -224 -144
WIRE -368 -48 -368 -144
WIRE -336 -48 -368 -48
WIRE -224 -32 -224 -48
WIRE -224 -32 -272 -32
WIRE -192 -32 -224 -32
WIRE -336 -16 -544 -16
WIRE 0 16 -128 16
WIRE 112 16 112 -144
WIRE 112 16 64 16
WIRE 160 16 112 16
WIRE 304 16 240 16
WIRE 448 16 448 -144
WIRE 448 16 304 16
WIRE 480 16 448 16
WIRE 528 16 480 16
WIRE 656 16 656 -80
WIRE 656 16 608 16
WIRE 736 16 656 16
WIRE -544 32 -544 -16
WIRE 480 64 480 16
WIRE 304 112 304 16
WIRE 384 112 304 112
WIRE 736 112 736 16
WIRE 480 128 448 128
WIRE 560 128 480 128
WIRE 688 128 640 128
WIRE -544 144 -544 112
WIRE 384 144 -544 144
WIRE -544 160 -544 144
WIRE 736 224 736 208
WIRE 832 224 832 -144
WIRE 832 224 736 224
WIRE 736 272 736 224
WIRE 736 352 736 336
WIRE 832 352 736 352
WIRE 736 384 736 352
WIRE 128 480 16 480
FLAG 128 480 0
FLAG 16 560 VEE2
FLAG 16 400 VCC2
FLAG 416 160 VEE2
FLAG 416 96 VCC2
FLAG -304 0 VEE2
FLAG -304 -64 VCC2
FLAG 736 464 0
FLAG -128 -80 VCC2
FLAG -544 -208 VCC2
FLAG -544 240 0
SYMBOL voltage 16 464 R0
WINDOW 0 54 29 Left 2
WINDOW 3 50 56 Left 2
WINDOW 123 0 0 Left 0
WINDOW 39 0 0 Left 0
SYMATTR InstName V1
SYMATTR Value 15
SYMBOL res 720 368 R0
SYMATTR InstName RDUT
SYMATTR Value 1k
SYMBOL res 256 0 R90
WINDOW 0 0 56 VBottom 2
WINDOW 3 32 56 VTop 2
SYMATTR InstName ISET2
SYMATTR Value 500R
SYMBOL voltage 16 384 R0
WINDOW 0 54 29 Left 2
WINDOW 3 50 56 Left 2
WINDOW 123 0 0 Left 0
WINDOW 39 0 0 Left 0
SYMATTR InstName V2
SYMATTR Value 15
SYMBOL res 656 112 R90
WINDOW 0 0 56 VBottom 2
WINDOW 3 32 56 VTop 2
SYMATTR InstName R2
SYMATTR Value 10k
SYMBOL OpAmps\\ADA4625 416 64 R0
WINDOW 3 -59 187 Left 2
SYMATTR InstName U2
SYMBOL diode 720 272 R0
SYMATTR InstName D1
SYMBOL diode 0 32 R270
WINDOW 0 32 32 VTop 2
WINDOW 3 0 32 VBottom 2
SYMATTR InstName D2
SYMBOL npn -192 -80 R0
SYMATTR InstName Q2
SYMBOL diode -560 -80 R0
SYMATTR InstName D4
SYMBOL diode -560 -144 R0
SYMATTR InstName D5
SYMBOL diode -560 -208 R0
SYMATTR InstName D6
SYMBOL pmos 688 208 M180
WINDOW 0 63 76 Left 2
WINDOW 3 57 35 Left 2
SYMATTR InstName M2
SYMATTR Value DMP31D7L
SYMATTR Prefix X
SYMBOL voltage -544 16 R0
WINDOW 123 0 0 Left 0
WINDOW 39 0 0 Left 0
WINDOW 3 46 44 Left 2
WINDOW 0 38 16 Left 2
SYMATTR Value 3
SYMATTR InstName V4
SYMBOL cap 464 64 R0
SYMATTR InstName C2
SYMATTR Value 220p
SYMBOL cap -240 -112 R0
SYMATTR InstName C1
SYMATTR Value 220p
SYMBOL res -560 144 R0
SYMATTR InstName R1
SYMATTR Value 10k
SYMBOL OpAmps\\LT1677 -304 -96 R0
SYMATTR InstName U3
SYMBOL res 624 0 R90
WINDOW 0 0 56 VBottom 2
WINDOW 3 32 56 VTop 2
SYMATTR InstName ISET1
SYMATTR Value 100R
TEXT -928 -248 Left 2 !.tran 0.1
TEXT -864 480 Left 2 ;switch /tap 40K/400k for 1:10 acal transfer?\nie for 3V/0.3V ref
TEXT -832 56 Left 2 ;ie. prec 3V/0.3V drop\nreferenced to near vcc
TEXT -824 576 Left 2 !.model MYSW SW(Ron=1 Roff=10G Vt=.5 Vh=-.4)
TEXT -912 -144 Left 2 ;Does a op good at positive rail \nexist in ltspice?
TEXT -872 -328 Left 2 !.include my.lib
