Version 4
SHEET 1 1768 872
WIRE 16 -352 -320 -352
WIRE 112 -352 96 -352
WIRE -96 -240 -128 -240
WIRE 32 -240 -16 -240
WIRE 112 -240 112 -352
WIRE 112 -240 96 -240
WIRE 160 -240 112 -240
WIRE 304 -240 240 -240
WIRE 544 -144 448 -144
WIRE 768 -144 640 -144
WIRE -320 -96 -320 -352
WIRE 16 -96 -320 -96
WIRE 112 -96 96 -96
WIRE -320 0 -320 -96
WIRE -288 0 -320 0
WIRE -128 16 -128 -240
WIRE -128 16 -224 16
WIRE -96 16 -128 16
WIRE 32 16 -16 16
WIRE 112 16 112 -96
WIRE 112 16 96 16
WIRE 160 16 112 16
WIRE 304 16 304 -240
WIRE 304 16 240 16
WIRE 448 16 448 -144
WIRE 448 16 304 16
WIRE 480 16 448 16
WIRE 592 16 592 -80
WIRE 592 16 560 16
WIRE 672 16 592 16
WIRE -560 32 -672 32
WIRE -288 32 -416 32
WIRE -416 48 -416 32
WIRE -560 112 -672 112
WIRE 304 112 304 16
WIRE 384 112 304 112
WIRE 672 112 672 16
WIRE -672 128 -672 112
WIRE 496 128 448 128
WIRE 624 128 576 128
WIRE -416 144 -416 128
WIRE 384 144 -416 144
WIRE -848 192 -896 192
WIRE -720 192 -768 192
WIRE 672 224 672 208
WIRE 768 224 768 -144
WIRE 768 224 672 224
WIRE 672 272 672 224
WIRE -672 304 -672 208
WIRE 672 384 672 336
WIRE 1120 688 1008 688
FLAG 1120 688 0
FLAG 1008 768 VEE2
FLAG 1008 608 VCC2
FLAG 416 160 VEE2
FLAG 416 96 VCC2
FLAG -256 48 VEE2
FLAG -256 -16 VCC2
FLAG -416 224 0
FLAG -672 384 0
FLAG 672 464 0
FLAG -672 -32 VCC2
FLAG -32 64 0
FLAG -32 -192 0
FLAG 80 -304 0
FLAG 80 -48 0
SYMBOL voltage 1008 672 R0
WINDOW 0 54 29 Left 2
WINDOW 3 50 56 Left 2
WINDOW 123 0 0 Left 0
WINDOW 39 0 0 Left 0
SYMATTR InstName V1
SYMATTR Value 15
SYMBOL res 656 368 R0
SYMATTR InstName RLOAD
SYMATTR Value 1k
SYMBOL res 256 0 R90
WINDOW 0 0 56 VBottom 2
WINDOW 3 32 56 VTop 2
SYMATTR InstName RSET
SYMATTR Value 100k
SYMBOL pmos 624 208 M180
SYMATTR InstName M1
SYMBOL voltage 1008 592 R0
WINDOW 0 54 29 Left 2
WINDOW 3 50 56 Left 2
WINDOW 123 0 0 Left 0
WINDOW 39 0 0 Left 0
SYMATTR InstName V2
SYMATTR Value 15
SYMBOL res 592 112 R90
WINDOW 0 0 56 VBottom 2
WINDOW 3 32 56 VTop 2
SYMATTR InstName R2
SYMATTR Value 10k
SYMBOL res 576 0 R90
WINDOW 0 -33 56 VBottom 2
WINDOW 3 -27 56 VTop 2
SYMATTR InstName R4
SYMATTR Value 22k
SYMBOL pnp 640 -80 M270
SYMATTR InstName Q1
SYMBOL OpAmps\\ADA4625 416 64 R0
WINDOW 3 -59 187 Left 2
SYMATTR InstName U2
SYMBOL diode 656 272 R0
SYMATTR InstName D1
SYMBOL res -688 288 R0
SYMATTR InstName R5
SYMATTR Value 40k
SYMBOL res -752 176 R90
WINDOW 0 0 56 VBottom 2
WINDOW 3 32 56 VTop 2
SYMATTR InstName R6
SYMATTR Value 10k
SYMBOL OpAmps\\ADA4625 -256 -48 R0
WINDOW 3 -36 175 Left 2
SYMATTR InstName U1
SYMBOL voltage -416 32 R0
WINDOW 123 0 0 Left 0
WINDOW 39 0 0 Left 0
WINDOW 3 46 44 Left 2
WINDOW 0 38 16 Left 2
SYMATTR Value 5
SYMATTR InstName VREF
SYMBOL res -688 16 R0
WINDOW 0 -101 54 Left 2
WINDOW 3 -102 83 Left 2
SYMATTR InstName R7
SYMATTR Value 28.57k
SYMBOL nmos -720 112 R0
SYMATTR InstName M2
SYMBOL diode 32 32 R270
WINDOW 0 32 32 VTop 2
WINDOW 3 0 32 VBottom 2
SYMATTR InstName D2
SYMBOL res 256 -256 R90
WINDOW 0 0 56 VBottom 2
WINDOW 3 32 56 VTop 2
SYMATTR InstName RSET1
SYMATTR Value 10k
SYMBOL diode 32 -224 R270
WINDOW 0 32 32 VTop 2
WINDOW 3 0 32 VBottom 2
SYMATTR InstName D3
SYMBOL voltage -416 128 R0
WINDOW 123 0 0 Left 0
WINDOW 39 0 0 Left 0
WINDOW 3 46 44 Left 2
WINDOW 0 38 16 Left 2
SYMATTR Value 8
SYMATTR InstName VREF1
SYMBOL sw 112 -352 M270
WINDOW 0 68 71 VLeft 2
WINDOW 3 43 69 VLeft 2
SYMATTR InstName S1
SYMBOL sw 0 -240 M270
WINDOW 0 68 111 VLeft 2
WINDOW 3 41 110 VLeft 2
SYMATTR InstName S2
SYMBOL sw 0 16 M270
WINDOW 0 65 105 VLeft 2
WINDOW 3 41 103 VLeft 2
SYMATTR InstName S3
SYMBOL sw 112 -96 M270
WINDOW 0 70 68 VLeft 2
WINDOW 3 48 69 VLeft 2
SYMATTR InstName S4
SYMBOL diode -656 32 R180
WINDOW 0 24 64 Left 2
WINDOW 3 24 0 Left 2
SYMATTR InstName D4
TEXT 936 416 Left 2 !.tran 0.1
TEXT 1000 -128 Left 2 ;OK.  this kelvin taps the feedback.\nBUT think the 3458a bjts. are acting like switches.
TEXT 824 -400 Left 2 ;Think 3458a and k2002 work similarly. switch for the current range,\nand a switch to kelvin tap the feedback in front of the switch.\n \nnote 3458a, has 12V compliance voltage, perhaps suggest acal can be\ndone with 1:1 transfer, instead of 1:10.
