Version 4
SHEET 1 2932 680
WIRE 1024 -144 768 -144
WIRE 768 -80 768 -144
WIRE 1024 -80 1024 -144
WIRE 864 0 768 0
WIRE 1024 0 928 0
WIRE 304 48 272 48
WIRE 528 48 496 48
WIRE 704 48 608 48
WIRE 1168 64 1120 64
WIRE -192 80 -272 80
WIRE 304 80 192 80
WIRE 1296 80 1248 80
WIRE -272 96 -272 80
WIRE -192 96 -192 80
WIRE 1024 96 768 96
WIRE 1168 96 1024 96
WIRE 528 112 496 112
WIRE 960 112 960 48
WIRE 960 112 608 112
WIRE 1712 128 1648 128
WIRE 1792 128 1712 128
WIRE 1920 128 1920 112
WIRE 1920 128 1792 128
WIRE 1968 128 1920 128
WIRE 2048 128 1968 128
WIRE 2448 128 2144 128
WIRE 1648 192 1472 192
WIRE 1744 192 1712 192
WIRE 2096 208 2096 192
WIRE 2096 208 1968 208
WIRE 1712 256 1648 256
WIRE 1792 256 1792 192
WIRE 1792 256 1712 256
WIRE 1872 256 1792 256
WIRE 1744 272 1744 192
WIRE 1744 272 1472 272
WIRE 272 288 272 48
WIRE 528 288 528 112
WIRE 528 288 272 288
WIRE 192 384 192 80
WIRE 1296 384 1296 80
WIRE 1296 384 192 384
WIRE 1120 416 1120 64
FLAG -192 96 0
FLAG -272 0 VCC
FLAG -272 176 VEE
FLAG 400 -32 VCC
FLAG 400 192 VCC
FLAG 768 -144 VCC
FLAG 768 176 0
FLAG 1184 128 0
FLAG 1200 32 VCC
FLAG 1200 128 VEE
FLAG 1296 0 VCC
FLAG 2448 208 0
FLAG 1120 496 0
FLAG 1872 256 0
FLAG 1968 272 0
SYMBOL voltage -272 -16 R0
WINDOW 123 0 0 Left 0
WINDOW 39 0 0 Left 0
WINDOW 3 48 40 Left 2
SYMATTR Value 5
SYMATTR InstName V2
SYMBOL voltage -272 80 R0
WINDOW 123 0 0 Left 0
WINDOW 39 0 0 Left 0
WINDOW 0 36 39 Left 2
SYMATTR InstName V3
SYMATTR Value 0
SYMBOL 74hc74 400 -32 R0
SYMATTR InstName U1
SYMBOL ind2 752 -96 R0
SYMATTR InstName L1
SYMATTR Value 5m
SYMATTR Type ind
SYMBOL npn 704 0 R0
SYMATTR InstName Q1
SYMBOL res 752 80 R0
SYMATTR InstName R1
SYMATTR Value 2.5R
SYMBOL res 624 32 R90
WINDOW 0 0 56 VBottom 2
WINDOW 3 32 56 VTop 2
SYMATTR InstName R3
SYMATTR Value 1k
SYMBOL res 624 96 R90
WINDOW 0 0 56 VBottom 2
WINDOW 3 32 56 VTop 2
SYMATTR InstName R4
SYMATTR Value 1k
SYMBOL ind2 1040 16 R180
WINDOW 0 36 80 Left 2
WINDOW 3 36 40 Left 2
SYMATTR InstName L2
SYMATTR Value 5m
SYMATTR Type ind
SYMBOL npn 960 0 R0
SYMATTR InstName Q2
SYMBOL ind2 1488 288 R180
WINDOW 0 36 80 Left 2
WINDOW 3 36 40 Left 2
SYMATTR InstName L3
SYMATTR Value 50m
SYMATTR Type ind
SYMBOL Comparators\\LT1011 1200 80 R0
SYMATTR InstName U2
SYMBOL res 1280 -16 R0
SYMATTR InstName R2
SYMATTR Value 3.3k
SYMBOL diode 1664 192 R180
WINDOW 0 24 64 Left 2
WINDOW 3 24 0 Left 2
SYMATTR InstName D1
SYMBOL diode 1728 192 R180
WINDOW 0 24 64 Left 2
WINDOW 3 24 0 Left 2
SYMATTR InstName D2
SYMBOL diode 1664 256 R180
WINDOW 0 24 64 Left 2
WINDOW 3 24 0 Left 2
SYMATTR InstName D3
SYMBOL diode 1728 256 R180
WINDOW 0 24 64 Left 2
WINDOW 3 24 0 Left 2
SYMATTR InstName D4
SYMBOL cap 1776 128 R0
SYMATTR InstName C1
SYMATTR Value 5µ
SYMBOL res 2432 112 R0
SYMATTR InstName R5
SYMATTR Value 1k
SYMBOL voltage 1120 400 R0
WINDOW 123 0 0 Left 0
WINDOW 39 0 0 Left 0
WINDOW 3 48 40 Left 2
SYMATTR Value 0.5V
SYMATTR InstName V1
SYMBOL npn 2048 192 R270
SYMATTR InstName Q3
SYMBOL res 1952 112 R0
SYMATTR InstName R6
SYMATTR Value 5k
SYMBOL cap 1952 208 R0
SYMATTR InstName C2
SYMATTR Value 1µF
TEXT -168 -224 Left 2 !.tran 15ms
TEXT -208 -312 Left 2 !.include 74hc.lib
TEXT 1592 -264 Left 2 ;The resevoir cap after rectifier must be reduced, othrwise presents too much\nload and will not start.\n \nRunning unregulated/ load regulated is also good.  \nWhen output is loaded then current will ramp faster, via megnetic coupling.\neg. \n100R = 3.5V\n200R = 5.4V out\n1k = 12V\nAND - the output filter input impedance will affect.
TEXT 944 -360 Left 2 !K L1 L2 L3 1
