Version 4
SHEET 1 2932 1268
WIRE 304 -64 144 -64
WIRE 304 -32 304 -64
WIRE 432 48 400 48
WIRE 464 48 432 48
WIRE 608 48 544 48
WIRE 1040 64 992 64
WIRE -192 80 -272 80
WIRE 1168 80 1120 80
WIRE -272 96 -272 80
WIRE -192 96 -192 80
WIRE 1040 96 672 96
WIRE 992 192 992 64
WIRE 144 304 144 -64
WIRE 608 304 608 48
WIRE 608 304 144 304
WIRE 1168 304 608 304
WIRE 432 432 432 48
WIRE 1040 480 976 480
WIRE 1168 496 1120 496
WIRE 592 512 528 512
WIRE 880 512 784 512
WIRE 1040 512 880 512
WIRE 976 576 976 480
WIRE 880 640 880 512
WIRE 592 688 592 512
WIRE 736 688 592 688
WIRE 304 800 304 192
WIRE 432 800 432 656
WIRE 432 800 304 800
WIRE 1168 800 1168 496
WIRE 1168 800 432 800
FLAG -192 96 0
FLAG -272 0 VCC
FLAG -272 176 VEE
FLAG 1056 128 0
FLAG 1072 32 VCC
FLAG 1072 128 VEE
FLAG 1168 0 VCC
FLAG 992 272 0
FLAG -448 96 0
FLAG -448 16 P15V
FLAG 208 80 0
FLAG 880 736 0
FLAG 784 576 0
FLAG 1056 544 0
FLAG 1072 448 VCC
FLAG 1072 544 VEE
FLAG 1168 416 VCC
FLAG 976 656 0
FLAG 336 512 0
FLAG 336 544 0
FLAG 704 512 VCC
FLAG 208 48 0
SYMBOL voltage -272 -16 R0
WINDOW 123 0 0 Left 0
WINDOW 39 0 0 Left 0
WINDOW 3 48 40 Left 2
SYMATTR Value 5
SYMATTR InstName V2
SYMBOL voltage -272 80 R0
WINDOW 123 0 0 Left 0
WINDOW 39 0 0 Left 0
WINDOW 0 36 39 Left 2
SYMATTR InstName V3
SYMATTR Value 0
SYMBOL 74hc74 304 -32 R0
SYMATTR InstName U1
SYMBOL res 560 32 R90
WINDOW 0 0 56 VBottom 2
WINDOW 3 32 56 VTop 2
SYMATTR InstName R3
SYMATTR Value 250R
SYMBOL Comparators\\LT1011 1072 80 R0
SYMATTR InstName U2
SYMBOL res 1152 -16 R0
SYMATTR InstName R2
SYMATTR Value 3.3k
SYMBOL voltage 992 176 R0
WINDOW 123 0 0 Left 0
WINDOW 39 0 0 Left 0
WINDOW 3 48 40 Left 2
SYMATTR Value 0.7V
SYMATTR InstName V1
SYMBOL voltage -448 0 R0
WINDOW 123 0 0 Left 0
WINDOW 39 0 0 Left 0
WINDOW 3 48 40 Left 2
SYMATTR Value 15
SYMATTR InstName V4
SYMBOL 74hc74 432 432 R0
SYMATTR InstName U4
SYMBOL res 800 496 R90
WINDOW 0 0 56 VBottom 2
WINDOW 3 32 56 VTop 2
SYMATTR InstName R8
SYMATTR Value 10k
SYMBOL cap 768 512 R0
SYMATTR InstName C4
SYMATTR Value 2n
SYMBOL npn 816 640 R0
SYMATTR InstName Q4
SYMBOL res 832 672 R90
WINDOW 0 0 56 VBottom 2
WINDOW 3 32 56 VTop 2
SYMATTR InstName R11
SYMATTR Value 100R
SYMBOL Comparators\\LT1011 1072 496 R0
SYMATTR InstName U5
SYMBOL res 1152 400 R0
SYMATTR InstName R12
SYMATTR Value 3.3k
SYMBOL voltage 976 560 R0
WINDOW 123 0 0 Left 0
WINDOW 39 0 0 Left 0
WINDOW 3 48 40 Left 2
SYMATTR Value 3.5V
SYMATTR InstName V6
TEXT -168 -224 Left 2 !.tran 0.5ms
TEXT -208 -312 Left 2 !.include 74hc.lib
TEXT 728 -208 Left 2 ;Adding input R helps ltspice sim. non start issue.
TEXT 1504 -248 Left 2 ;Must be careful. do not load or drive, so that comparator cannot pick\nout the current limit, because it's too fast. it's easy  to see timing go wrong.
TEXT -440 568 Left 2 ;Having RC charged by VCC. guarantees a cold-start pulse.\n- we get clearly defined phases\n- start pulse.\n- finish of current ramp .\n- finish cycle. fixed timing.
TEXT 1488 -8 Left 2 ;- flyback needs a blocking rectifier.\n- forward converter needs a reset winding, and freewheeling diode on secondary\n- if ramp is greater than 50% of cycle, need slope compensation
TEXT 1504 -168 Left 2 ;74hc74 pinout appears the same as 74hc74d.\n \ninputs are considered active lo.\nCLR/ RD (pin 1) hi, turns Q hi. CLR dominates.  (reset as active low)\nPRE / SD  (pin 4 ) hi, turns Q lo. ~Q high.
