Version 4
SHEET 1 5720 1268
WIRE 1360 -112 1200 -112
WIRE 1360 -32 1200 -32
WIRE 640 0 544 0
WIRE 944 0 944 -32
WIRE 944 0 704 0
WIRE 944 64 944 0
WIRE 544 96 544 0
WIRE 560 96 544 96
WIRE 688 112 624 112
WIRE 880 112 768 112
WIRE 560 128 544 128
WIRE 1008 160 944 160
WIRE -208 384 -288 384
WIRE -288 400 -288 384
WIRE -208 400 -208 384
FLAG -208 400 0
FLAG -288 304 VCC
FLAG -288 480 VEE
FLAG -464 400 0
FLAG -464 320 P15V
FLAG 112 160 0
FLAG 464 96 DRIVE
FLAG 592 144 VCC
FLAG 592 80 VEE
FLAG 944 -192 VCC
FLAG 944 240 0
FLAG 320 400 0
FLAG 320 320 LP0V5
FLAG 464 128 LP0V5
FLAG 112 80 DRIVE
FLAG 48 256 DRIVE
FLAG 160 256 CDRIVE
SYMBOL voltage -288 288 R0
WINDOW 123 0 0 Left 0
WINDOW 39 0 0 Left 0
WINDOW 3 48 40 Left 2
SYMATTR Value 5
SYMATTR InstName V2
SYMBOL voltage -288 384 R0
WINDOW 123 0 0 Left 0
WINDOW 39 0 0 Left 0
WINDOW 0 36 39 Left 2
SYMATTR InstName V3
SYMATTR Value 0
SYMBOL voltage -464 304 R0
WINDOW 123 0 0 Left 0
WINDOW 39 0 0 Left 0
WINDOW 3 48 40 Left 2
SYMATTR Value 15
SYMATTR InstName V4
SYMBOL voltage 112 64 R0
WINDOW 123 0 0 Left 0
WINDOW 39 0 0 Left 0
WINDOW 3 -545 49 Left 2
SYMATTR Value PULSE(0 1 1us 10ns 10ns 25us 50us 7)
SYMATTR InstName V1
SYMBOL res 560 80 R90
WINDOW 0 -29 54 VBottom 2
WINDOW 3 -28 54 VTop 2
SYMATTR InstName R15
SYMATTR Value 10k
SYMBOL OpAmps\\LT1006 592 176 M180
SYMATTR InstName U1
SYMBOL npn 880 64 R0
SYMATTR InstName Q1
SYMBOL res 784 96 R90
WINDOW 0 0 56 VBottom 2
WINDOW 3 32 56 VTop 2
SYMATTR InstName R3
SYMATTR Value 250R
SYMBOL res 928 -208 R0
SYMATTR InstName R4
SYMATTR Value 0.01R
SYMBOL res 928 144 R0
SYMATTR InstName R5
SYMATTR Value 1R
SYMBOL ind2 928 -128 R0
SYMATTR InstName L1
SYMATTR Value 1000µ
SYMATTR Type ind
SYMBOL ind2 1184 -128 R0
SYMATTR InstName L2
SYMATTR Value 1000µ
SYMATTR Type ind
SYMBOL res 1344 -128 R0
SYMATTR InstName R6
SYMATTR Value 5R
SYMBOL voltage 320 304 R0
WINDOW 123 0 0 Left 0
WINDOW 39 0 0 Left 0
WINDOW 3 -78 78 Left 2
WINDOW 0 -77 54 Left 2
SYMATTR Value 0.5
SYMATTR InstName V5
SYMBOL cap 704 -16 R90
WINDOW 0 87 64 VBottom 2
WINDOW 3 31 60 VTop 2
SYMATTR InstName C2
SYMATTR Value 0.3n
SYMBOL 74hc04 96 192 R0
SYMATTR InstName U3
SYMATTR SpiceLine VCC=1  SPEED=1.0  TRIPDT=1e-9
SYMBOL res 560 112 R90
WINDOW 0 64 57 VBottom 2
WINDOW 3 59 58 VTop 2
SYMATTR InstName R1
SYMATTR Value 10k
TEXT -88 -224 Left 2 !.tran 0.5ms
TEXT -72 -288 Left 2 !K L1 L2 0.99
TEXT 1168 -296 Left 2 ;Ok. we have something confused. \nWhen slewing collector/drain, and at high load eg. 5R./1A then current\nand current sense is inherently smoothed/slewed. \nWhy? bjt saturation?
TEXT -96 -160 Left 2 !.include 74hc.lib
TEXT -32 328 Left 2 ;modified. VCC=1V
