Version 4
SHEET 1 5720 1268
WIRE 672 -80 672 -144
WIRE 272 -64 112 -64
WIRE 272 -32 272 -64
WIRE 768 0 672 0
WIRE 416 48 368 48
WIRE 464 48 416 48
WIRE 608 48 544 48
WIRE 1040 64 992 64
WIRE -192 80 -272 80
WIRE 1168 80 1120 80
WIRE -272 96 -272 80
WIRE -192 96 -192 80
WIRE 768 96 672 96
WIRE 1040 96 944 96
WIRE 1648 128 1536 128
WIRE 1856 128 1712 128
WIRE 2016 128 1856 128
WIRE 992 160 992 64
WIRE 1536 192 1536 128
WIRE 1856 272 1856 192
WIRE 1856 272 1536 272
WIRE 112 288 112 -64
WIRE 1168 288 1168 80
WIRE 1168 288 112 288
WIRE 464 384 432 384
WIRE 1536 400 1504 400
WIRE 1648 400 1616 400
WIRE 432 432 432 384
WIRE 1040 480 976 480
WIRE 1504 480 1504 400
WIRE 1552 480 1504 480
WIRE 1168 496 1120 496
WIRE 1648 496 1648 400
WIRE 1648 496 1616 496
WIRE 1728 496 1648 496
WIRE 544 512 544 384
WIRE 544 512 528 512
WIRE 592 512 544 512
WIRE 864 512 784 512
WIRE 880 512 864 512
WIRE 1040 512 880 512
WIRE 1552 512 1504 512
WIRE 976 576 976 480
WIRE 1504 576 1504 512
WIRE 880 640 880 512
WIRE 592 688 592 512
WIRE 736 688 592 688
WIRE 272 800 272 192
WIRE 432 800 432 656
WIRE 432 800 272 800
WIRE 1168 800 1168 496
WIRE 1168 800 432 800
FLAG -192 96 0
FLAG -272 0 VCC
FLAG -272 176 VEE
FLAG 672 176 0
FLAG 1056 128 0
FLAG 1072 32 VCC
FLAG 1072 128 VEE
FLAG 1168 0 VCC
FLAG 2016 208 0
FLAG 992 240 0
FLAG 1856 272 0
FLAG -448 96 0
FLAG -448 16 P15V
FLAG 672 -224 P15V
FLAG 176 80 0
FLAG 880 736 0
FLAG 784 576 0
FLAG 1056 544 0
FLAG 1072 448 VCC
FLAG 1072 544 VEE
FLAG 1168 416 VCC
FLAG 976 656 0
FLAG 336 512 0
FLAG 336 544 0
FLAG 704 512 VCC
FLAG 176 48 0
FLAG 1504 320 0
FLAG 1584 464 VCC
FLAG 1584 528 VEE
FLAG 864 512 CRAMP
FLAG 768 96 IRAMP
FLAG 1424 512 IRAMP
FLAG 1728 496 SRAMP
FLAG 944 96 IRAMP
FLAG 416 48 SWDRIVE
FLAG 1424 576 CRAMP
SYMBOL voltage -272 -16 R0
WINDOW 123 0 0 Left 0
WINDOW 39 0 0 Left 0
WINDOW 3 48 40 Left 2
SYMATTR Value 5
SYMATTR InstName V2
SYMBOL voltage -272 80 R0
WINDOW 123 0 0 Left 0
WINDOW 39 0 0 Left 0
WINDOW 0 36 39 Left 2
SYMATTR InstName V3
SYMATTR Value 0
SYMBOL 74hc74 272 -32 R0
SYMATTR InstName U1
SYMBOL ind2 656 -96 R0
SYMATTR InstName L1
SYMATTR Value 400µ
SYMATTR Type ind
SYMBOL npn 608 0 R0
SYMATTR InstName Q1
SYMBOL res 656 80 R0
SYMATTR InstName R1
SYMATTR Value 0.7R
SYMBOL res 560 32 R90
WINDOW 0 0 56 VBottom 2
WINDOW 3 32 56 VTop 2
SYMATTR InstName R3
SYMATTR Value 250R
SYMBOL ind2 1520 288 M180
WINDOW 0 36 80 Left 2
WINDOW 3 36 40 Left 2
SYMATTR InstName L3
SYMATTR Value 200µ
SYMATTR Type ind
SYMBOL Comparators\\LT1011 1072 80 R0
SYMATTR InstName U2
SYMBOL res 1152 -16 R0
SYMATTR InstName R2
SYMATTR Value 3.3k
SYMBOL diode 1648 144 R270
WINDOW 0 32 32 VTop 2
WINDOW 3 0 32 VBottom 2
SYMATTR InstName D1
SYMBOL res 2000 112 R0
SYMATTR InstName R5
SYMATTR Value 50R
SYMBOL voltage 992 144 R0
WINDOW 123 0 0 Left 0
WINDOW 39 0 0 Left 0
WINDOW 3 48 40 Left 2
SYMATTR Value 0.7V
SYMATTR InstName V1
SYMBOL voltage -448 0 R0
WINDOW 123 0 0 Left 0
WINDOW 39 0 0 Left 0
WINDOW 3 48 40 Left 2
SYMATTR Value 15
SYMATTR InstName V4
SYMBOL res 688 -128 R180
WINDOW 0 36 76 Left 2
WINDOW 3 36 40 Left 2
SYMATTR InstName R7
SYMATTR Value 0.01R
SYMBOL cap 1840 128 R0
SYMATTR InstName C1
SYMATTR Value 1µ
SYMBOL 74hc74 432 432 R0
SYMATTR InstName U4
SYMBOL res 800 496 R90
WINDOW 0 0 56 VBottom 2
WINDOW 3 32 56 VTop 2
SYMATTR InstName R8
SYMATTR Value 10k
SYMBOL cap 768 512 R0
SYMATTR InstName C4
SYMATTR Value 50n
SYMBOL npn 816 640 R0
SYMATTR InstName Q4
SYMBOL res 832 672 R90
WINDOW 0 0 56 VBottom 2
WINDOW 3 32 56 VTop 2
SYMATTR InstName R11
SYMATTR Value 100R
SYMBOL Comparators\\LT1011 1072 496 R0
SYMATTR InstName U5
SYMBOL res 1152 400 R0
SYMATTR InstName R12
SYMATTR Value 3.3k
SYMBOL voltage 976 560 R0
WINDOW 123 0 0 Left 0
WINDOW 39 0 0 Left 0
WINDOW 3 48 40 Left 2
SYMATTR Value 1V
SYMATTR InstName V6
SYMBOL res 560 368 R90
WINDOW 0 0 56 VBottom 2
WINDOW 3 32 56 VTop 2
SYMATTR InstName R4
SYMATTR Value 10k
SYMBOL OpAmps\\LT1006 1584 432 R0
WINDOW 3 30 120 Left 2
SYMATTR InstName U3
SYMBOL res 1520 416 R180
WINDOW 0 36 76 Left 2
WINDOW 3 36 40 Left 2
SYMATTR InstName R6
SYMATTR Value 10k
SYMBOL res 1632 384 R90
WINDOW 0 0 56 VBottom 2
WINDOW 3 32 56 VTop 2
SYMATTR InstName R9
SYMATTR Value 10k
SYMBOL res 1408 528 R270
WINDOW 0 32 56 VTop 2
WINDOW 3 0 56 VBottom 2
SYMATTR InstName R10
SYMATTR Value 30k
SYMBOL res 1408 592 R270
WINDOW 0 32 56 VTop 2
WINDOW 3 0 56 VBottom 2
SYMATTR InstName R13
SYMATTR Value 50k
TEXT -168 -224 Left 2 !.tran 0.5ms
TEXT -208 -312 Left 2 !.include 74hc.lib
TEXT 944 -360 Left 2 !K L1 L3 0.99
TEXT 1504 -168 Left 2 ;Slope compensation is implemented by summing a periodic ramp \nwith the sensed current signal. One way to create the ramp is to use\n the R-C oscillator waveform generated by the control IC.1,2 The oscillator \nis generally buffered by an emitter follower and fed into a resistor, \nsumming the oscillator ramp with the sensed current signal, \nwhich feeds another resistor.
