Version 4
SHEET 1 5720 1268
WIRE 672 -80 672 -144
WIRE 272 -64 112 -64
WIRE 272 -32 272 -64
WIRE 1088 -16 976 -16
WIRE 1296 -16 1152 -16
WIRE 1456 -16 1296 -16
WIRE 768 0 672 0
WIRE 416 48 368 48
WIRE 464 48 416 48
WIRE 608 48 544 48
WIRE 976 48 976 -16
WIRE -592 80 -624 80
WIRE -480 80 -512 80
WIRE 768 96 672 96
WIRE 432 112 368 112
WIRE 1296 128 1296 48
WIRE 1296 128 976 128
WIRE -144 144 -192 144
WIRE -624 160 -624 80
WIRE -576 160 -624 160
WIRE -16 160 -64 160
WIRE 112 160 112 -64
WIRE 112 160 -16 160
WIRE -480 176 -480 80
WIRE -480 176 -512 176
WIRE -336 176 -480 176
WIRE -144 176 -336 176
WIRE -576 192 -624 192
WIRE -192 240 -192 144
WIRE -624 256 -624 192
WIRE -624 368 -624 256
WIRE 464 384 432 384
WIRE 432 432 432 384
WIRE 1040 480 976 480
WIRE 1168 496 1120 496
WIRE 544 512 544 384
WIRE 544 512 528 512
WIRE 592 512 544 512
WIRE 864 512 784 512
WIRE 880 512 864 512
WIRE 1040 512 880 512
WIRE 976 576 976 480
WIRE 880 640 880 512
WIRE 592 688 592 512
WIRE 736 688 592 688
WIRE -432 800 -512 800
WIRE 272 800 272 192
WIRE 432 800 432 656
WIRE 432 800 272 800
WIRE 1168 800 1168 496
WIRE 1168 800 432 800
WIRE -512 816 -512 800
WIRE -432 816 -432 800
FLAG -432 816 0
FLAG -512 720 VCC
FLAG -512 896 VEE
FLAG 672 176 0
FLAG 1456 64 0
FLAG 1296 128 0
FLAG -688 816 0
FLAG -688 736 P15V
FLAG 672 -224 P15V
FLAG 176 80 0
FLAG 880 736 0
FLAG 784 576 0
FLAG 1056 544 0
FLAG 1072 448 VCC
FLAG 1072 544 VEE
FLAG 1168 416 VCC
FLAG 976 656 0
FLAG 336 512 0
FLAG 336 544 0
FLAG 704 512 VCC
FLAG 176 48 0
FLAG -624 0 0
FLAG -544 144 VCC
FLAG -544 208 VEE
FLAG 864 512 CRAMP
FLAG 768 96 IRAMP
FLAG -704 192 IRAMP
FLAG 416 48 SW
FLAG -128 208 0
FLAG -112 112 VCC
FLAG -112 208 VEE
FLAG -192 320 0
FLAG -16 80 VCC
FLAG 432 112 CSW
FLAG -336 176 SUMRAMP
FLAG -304 112 IRAMP
FLAG -624 464 0
FLAG -768 416 CSW
FLAG -704 256 CRAMP
SYMBOL voltage -512 704 R0
WINDOW 123 0 0 Left 0
WINDOW 39 0 0 Left 0
WINDOW 3 48 40 Left 2
SYMATTR Value 5
SYMATTR InstName V2
SYMBOL voltage -512 800 R0
WINDOW 123 0 0 Left 0
WINDOW 39 0 0 Left 0
WINDOW 0 36 39 Left 2
SYMATTR InstName V3
SYMATTR Value 0
SYMBOL 74hc74 272 -32 R0
SYMATTR InstName U1
SYMBOL ind2 656 -96 R0
SYMATTR InstName L1
SYMATTR Value 600µ
SYMATTR Type ind
SYMBOL npn 608 0 R0
SYMATTR InstName Q1
SYMBOL res 656 80 R0
SYMATTR InstName R1
SYMATTR Value 0.7R
SYMBOL res 560 32 R90
WINDOW 0 0 56 VBottom 2
WINDOW 3 32 56 VTop 2
SYMATTR InstName R3
SYMATTR Value 250R
SYMBOL ind2 960 144 M180
WINDOW 0 36 80 Left 2
WINDOW 3 36 40 Left 2
SYMATTR InstName L3
SYMATTR Value 200µ
SYMATTR Type ind
SYMBOL diode 1088 0 R270
WINDOW 0 32 32 VTop 2
WINDOW 3 0 32 VBottom 2
SYMATTR InstName D1
SYMBOL res 1440 -32 R0
SYMATTR InstName R5
SYMATTR Value 50R
SYMBOL voltage -688 720 R0
WINDOW 123 0 0 Left 0
WINDOW 39 0 0 Left 0
WINDOW 3 48 40 Left 2
SYMATTR Value 15
SYMATTR InstName V4
SYMBOL res 688 -128 R180
WINDOW 0 36 76 Left 2
WINDOW 3 36 40 Left 2
SYMATTR InstName R7
SYMATTR Value 0.01R
SYMBOL cap 1280 -16 R0
SYMATTR InstName C1
SYMATTR Value 1µ
SYMBOL 74hc74 432 432 R0
SYMATTR InstName U4
SYMBOL res 800 496 R90
WINDOW 0 0 56 VBottom 2
WINDOW 3 32 56 VTop 2
SYMATTR InstName R8
SYMATTR Value 10k
SYMBOL cap 768 512 R0
SYMATTR InstName C4
SYMATTR Value 50n
SYMBOL npn 816 640 R0
SYMATTR InstName Q4
SYMBOL res 832 672 R90
WINDOW 0 0 56 VBottom 2
WINDOW 3 32 56 VTop 2
SYMATTR InstName R11
SYMATTR Value 100R
SYMBOL Comparators\\LT1011 1072 496 R0
SYMATTR InstName U5
SYMBOL res 1152 400 R0
SYMATTR InstName R12
SYMATTR Value 3.3k
SYMBOL voltage 976 560 R0
WINDOW 123 0 0 Left 0
WINDOW 39 0 0 Left 0
WINDOW 3 48 40 Left 2
SYMATTR Value 1V
SYMATTR InstName V6
SYMBOL OpAmps\\LT1006 -544 112 R0
WINDOW 3 30 120 Left 2
SYMATTR InstName U3
SYMBOL res -608 96 R180
WINDOW 0 36 76 Left 2
WINDOW 3 36 40 Left 2
SYMATTR InstName R6
SYMATTR Value 10k
SYMBOL res -496 64 R90
WINDOW 0 0 56 VBottom 2
WINDOW 3 32 56 VTop 2
SYMATTR InstName R9
SYMATTR Value 10k
SYMBOL res -720 208 R270
WINDOW 0 32 56 VTop 2
WINDOW 3 85 57 VBottom 2
SYMATTR InstName R10
SYMATTR Value 10k
SYMBOL res -720 272 R270
WINDOW 0 -32 55 VTop 2
WINDOW 3 -32 56 VBottom 2
SYMATTR InstName R13
SYMATTR Value 10k
SYMBOL Comparators\\LT1011 -112 160 R0
SYMATTR InstName U6
SYMBOL res -32 64 R0
SYMATTR InstName R14
SYMATTR Value 3.3k
SYMBOL voltage -192 224 R0
WINDOW 123 0 0 Left 0
WINDOW 39 0 0 Left 0
WINDOW 3 48 40 Left 2
SYMATTR Value 0.5V
SYMATTR InstName V5
SYMBOL res 560 368 R90
WINDOW 0 0 56 VBottom 2
WINDOW 3 32 56 VTop 2
SYMATTR InstName R4
SYMATTR Value 10k
SYMBOL npn -688 368 R0
SYMATTR InstName Q3
SYMBOL res -672 400 R90
WINDOW 0 0 56 VBottom 2
WINDOW 3 32 56 VTop 2
SYMATTR InstName R2
SYMATTR Value 1k
TEXT -168 -224 Left 2 !.tran 0.5ms
TEXT -208 -312 Left 2 !.include 74hc.lib
TEXT 944 -360 Left 2 !K L1 L3 0.99
TEXT 1704 -152 Left 2 ;Slope compensation is implemented by summing a periodic ramp \nwith the sensed current signal. One way to create the ramp is to use\n the R-C oscillator waveform generated by the control IC.1,2 The oscillator \nis generally buffered by an emitter follower and fed into a resistor, \nsumming the oscillator ramp with the sensed current signal, \nwhich feeds another resistor.
TEXT 1696 104 Left 2 ;We make the slope ramp separate from cycle ramp,\nthat enables to turn it off, to avoid spurious comparator crosses/signals.\n- we cannot use a diode, because voltages are too low.
