Version 4
SHEET 1 6648 1268
WIRE 2176 -144 2016 -144
WIRE 2176 -64 2016 -64
WIRE 736 0 640 0
WIRE 944 0 944 -32
WIRE 944 0 800 0
WIRE 1472 0 1376 0
WIRE 1680 0 1680 -32
WIRE 1680 0 1536 0
WIRE 944 32 944 0
WIRE 1072 32 944 32
WIRE 1680 32 1680 0
WIRE 1808 32 1680 32
WIRE 944 64 944 32
WIRE 1680 64 1680 32
WIRE 640 96 640 0
WIRE 656 96 640 96
WIRE 1072 96 1072 32
WIRE 1376 96 1376 0
WIRE 1392 96 1376 96
WIRE 1808 96 1808 32
WIRE 736 112 720 112
WIRE 784 112 736 112
WIRE 880 112 864 112
WIRE 1472 112 1456 112
WIRE 1520 112 1472 112
WIRE 1616 112 1600 112
WIRE 656 128 640 128
WIRE 1392 128 1376 128
WIRE 1072 160 944 160
WIRE 1808 160 1680 160
WIRE 640 240 640 128
WIRE 656 240 640 240
WIRE 736 240 736 112
WIRE 736 240 720 240
WIRE 1376 240 1376 128
WIRE 1392 240 1376 240
WIRE 1472 240 1472 112
WIRE 1472 240 1456 240
WIRE -208 384 -288 384
WIRE -288 400 -288 384
WIRE -208 400 -208 384
FLAG -208 400 0
FLAG -288 304 VCC
FLAG -288 480 VEE
FLAG -464 400 0
FLAG -464 320 P15V
FLAG 112 160 0
FLAG 560 96 DRIVE
FLAG 688 80 VEE
FLAG 944 -192 VCC
FLAG 944 240 0
FLAG 320 400 0
FLAG 320 320 LP0V5
FLAG 560 128 LP0V5
FLAG 112 80 DRIVE
FLAG 48 256 DRIVE
FLAG 160 256 CDRIVE
FLAG 688 144 P15V
FLAG 1296 96 CDRIVE
FLAG 1424 80 VEE
FLAG 1680 -192 VCC
FLAG 1680 240 0
FLAG 1296 128 LP0V5
FLAG 1424 144 P15V
SYMBOL voltage -288 288 R0
WINDOW 123 0 0 Left 0
WINDOW 39 0 0 Left 0
WINDOW 3 48 40 Left 2
SYMATTR Value 5
SYMATTR InstName V2
SYMBOL voltage -288 384 R0
WINDOW 123 0 0 Left 0
WINDOW 39 0 0 Left 0
WINDOW 0 36 39 Left 2
SYMATTR InstName V3
SYMATTR Value 0
SYMBOL voltage -464 304 R0
WINDOW 123 0 0 Left 0
WINDOW 39 0 0 Left 0
WINDOW 3 48 40 Left 2
SYMATTR Value 15
SYMATTR InstName V4
SYMBOL voltage 112 64 R0
WINDOW 123 0 0 Left 0
WINDOW 39 0 0 Left 0
WINDOW 3 -545 49 Left 2
SYMATTR Value PULSE(0 1 1us 10ns 10ns 25us 50us 7)
SYMATTR InstName V1
SYMBOL res 656 80 R90
WINDOW 0 -29 54 VBottom 2
WINDOW 3 -28 54 VTop 2
SYMATTR InstName R15
SYMATTR Value 2k
SYMBOL npn 880 64 R0
SYMATTR InstName Q1
SYMATTR Value MJE15034
SYMBOL res 768 128 R270
WINDOW 0 32 56 VTop 2
WINDOW 3 0 56 VBottom 2
SYMATTR InstName R3
SYMATTR Value 250R
SYMBOL res 928 -208 R0
SYMATTR InstName R4
SYMATTR Value 0.01R
SYMBOL res 928 144 R0
SYMATTR InstName R5
SYMATTR Value 1R
SYMBOL ind2 928 -128 R0
SYMATTR InstName L1
SYMATTR Value 1000µ
SYMATTR Type ind
SYMBOL ind2 2000 -160 R0
SYMATTR InstName L2
SYMATTR Value 1000µ
SYMATTR Type ind
SYMBOL res 2160 -160 R0
SYMATTR InstName R6
SYMATTR Value 2R
SYMBOL voltage 320 304 R0
WINDOW 123 0 0 Left 0
WINDOW 39 0 0 Left 0
WINDOW 3 -78 78 Left 2
WINDOW 0 -77 54 Left 2
SYMATTR Value 0.5
SYMATTR InstName V5
SYMBOL cap 800 -16 R90
WINDOW 0 87 64 VBottom 2
WINDOW 3 31 60 VTop 2
SYMATTR InstName C2
SYMATTR Value 0.3n
SYMBOL 74hc04 96 192 R0
SYMATTR InstName U3
SYMATTR SpiceLine VCC=1  SPEED=1.0  TRIPDT=1e-9
SYMBOL res 656 112 R90
WINDOW 0 64 57 VBottom 2
WINDOW 3 59 58 VTop 2
SYMATTR InstName R1
SYMATTR Value 10k
SYMBOL cap 720 224 R90
WINDOW 0 0 32 VBottom 2
WINDOW 3 32 32 VTop 2
SYMATTR InstName C1
SYMATTR Value 20p
SYMBOL OpAmps\\LT1677 688 176 M180
SYMATTR InstName U1
SYMBOL res 1392 80 R90
WINDOW 0 -29 54 VBottom 2
WINDOW 3 -28 54 VTop 2
SYMATTR InstName R2
SYMATTR Value 2k
SYMBOL npn 1616 64 R0
SYMATTR InstName Q2
SYMATTR Value MJE15034
SYMBOL res 1504 128 R270
WINDOW 0 32 56 VTop 2
WINDOW 3 0 56 VBottom 2
SYMATTR InstName R7
SYMATTR Value 250R
SYMBOL res 1664 -208 R0
SYMATTR InstName R8
SYMATTR Value 0.01R
SYMBOL res 1664 144 R0
SYMATTR InstName R9
SYMATTR Value 1R
SYMBOL ind2 1696 -16 R180
WINDOW 0 36 80 Left 2
WINDOW 3 36 40 Left 2
SYMATTR InstName L3
SYMATTR Value 1000µ
SYMATTR Type ind
SYMBOL cap 1536 -16 R90
WINDOW 0 87 64 VBottom 2
WINDOW 3 31 60 VTop 2
SYMATTR InstName C3
SYMATTR Value 0.3n
SYMBOL res 1392 112 R90
WINDOW 0 64 57 VBottom 2
WINDOW 3 59 58 VTop 2
SYMATTR InstName R10
SYMATTR Value 10k
SYMBOL cap 1456 224 R90
WINDOW 0 0 32 VBottom 2
WINDOW 3 32 32 VTop 2
SYMATTR InstName C4
SYMATTR Value 20p
SYMBOL OpAmps\\LT1677 1424 176 M180
SYMATTR InstName U2
TEXT -88 -224 Left 2 !.tran 0.5ms
TEXT 1304 -248 Left 2 !K L1 L2 L3 0.99
TEXT 1984 -328 Left 2 ;Ok. we have something confused. \nWhen slewing collector/drain, and at high load eg. 5R./1A then current\nand current sense is inherently smoothed/slewed. \nWhy? bjt saturation?
TEXT -96 -160 Left 2 !.include 74hc.lib
TEXT -32 328 Left 2 ;modified. VCC=1V
TEXT 2008 48 Left 2 ;fast bjt like mje15034g wants a faster op driver to avoid oscillaton.\n2n3055  works ok with lt1006.
TEXT -80 -96 Left 2 !.include standard.bjt
TEXT 1064 -480 Left 2 ;push pull, with controlled slew of collector/drain.
