Version 4
SHEET 1 2932 1268
WIRE 672 -80 672 -144
WIRE 272 -64 112 -64
WIRE 272 -32 272 -64
WIRE 768 0 672 0
WIRE 464 48 368 48
WIRE 608 48 544 48
WIRE 1040 64 992 64
WIRE -192 80 -272 80
WIRE 1168 80 1120 80
WIRE -272 96 -272 80
WIRE -192 96 -192 80
WIRE 1040 96 672 96
WIRE 1776 128 1712 128
WIRE 1856 128 1776 128
WIRE 1984 128 1984 112
WIRE 1984 128 1856 128
WIRE 2032 128 1984 128
WIRE 2112 128 2032 128
WIRE 2512 128 2208 128
WIRE 992 160 992 64
WIRE 1712 192 1536 192
WIRE 1808 192 1776 192
WIRE 2160 208 2160 192
WIRE 2160 208 2032 208
WIRE 1776 256 1712 256
WIRE 1856 256 1856 192
WIRE 1856 256 1776 256
WIRE 1936 256 1856 256
WIRE 1808 272 1808 192
WIRE 1808 272 1536 272
WIRE 112 288 112 -64
WIRE 1168 288 1168 80
WIRE 1168 288 112 288
WIRE 464 384 432 384
WIRE 432 432 432 384
WIRE 1040 480 976 480
WIRE 1168 496 1120 496
WIRE 544 512 544 384
WIRE 544 512 528 512
WIRE 592 512 544 512
WIRE 880 512 784 512
WIRE 1040 512 880 512
WIRE 976 576 976 480
WIRE 880 640 880 512
WIRE 592 688 592 512
WIRE 736 688 592 688
WIRE 272 800 272 192
WIRE 432 800 432 656
WIRE 432 800 272 800
WIRE 1168 800 1168 496
WIRE 1168 800 432 800
FLAG -192 96 0
FLAG -272 0 VCC
FLAG -272 176 VEE
FLAG 672 176 0
FLAG 1056 128 0
FLAG 1072 32 VCC
FLAG 1072 128 VEE
FLAG 1168 0 VCC
FLAG 2512 208 0
FLAG 992 240 0
FLAG 1936 256 0
FLAG 2032 272 0
FLAG -448 96 0
FLAG -448 16 P15V
FLAG 672 -224 P15V
FLAG 176 80 0
FLAG 880 736 0
FLAG 784 576 0
FLAG 1056 544 0
FLAG 1072 448 VCC
FLAG 1072 544 VEE
FLAG 1168 416 VCC
FLAG 976 656 0
FLAG 336 512 0
FLAG 336 544 0
FLAG 704 512 VCC
FLAG 176 48 0
SYMBOL voltage -272 -16 R0
WINDOW 123 0 0 Left 0
WINDOW 39 0 0 Left 0
WINDOW 3 48 40 Left 2
SYMATTR Value 5
SYMATTR InstName V2
SYMBOL voltage -272 80 R0
WINDOW 123 0 0 Left 0
WINDOW 39 0 0 Left 0
WINDOW 0 36 39 Left 2
SYMATTR InstName V3
SYMATTR Value 0
SYMBOL 74hc74 272 -32 R0
SYMATTR InstName U1
SYMBOL ind2 656 -96 R0
SYMATTR InstName L1
SYMATTR Value 200µ
SYMATTR Type ind
SYMBOL npn 608 0 R0
SYMATTR InstName Q1
SYMBOL res 656 80 R0
SYMATTR InstName R1
SYMATTR Value 0.7R
SYMBOL res 560 32 R90
WINDOW 0 0 56 VBottom 2
WINDOW 3 32 56 VTop 2
SYMATTR InstName R3
SYMATTR Value 250R
SYMBOL ind2 1552 288 R180
WINDOW 0 36 80 Left 2
WINDOW 3 36 40 Left 2
SYMATTR InstName L3
SYMATTR Value 200µ
SYMATTR Type ind
SYMBOL Comparators\\LT1011 1072 80 R0
SYMATTR InstName U2
SYMBOL res 1152 -16 R0
SYMATTR InstName R2
SYMATTR Value 3.3k
SYMBOL diode 1728 192 R180
WINDOW 0 24 64 Left 2
WINDOW 3 24 0 Left 2
SYMATTR InstName D1
SYMBOL diode 1792 192 R180
WINDOW 0 24 64 Left 2
WINDOW 3 24 0 Left 2
SYMATTR InstName D2
SYMBOL diode 1728 256 R180
WINDOW 0 24 64 Left 2
WINDOW 3 24 0 Left 2
SYMATTR InstName D3
SYMBOL diode 1792 256 R180
WINDOW 0 24 64 Left 2
WINDOW 3 24 0 Left 2
SYMATTR InstName D4
SYMBOL res 2496 112 R0
SYMATTR InstName R5
SYMATTR Value 200R
SYMBOL voltage 992 144 R0
WINDOW 123 0 0 Left 0
WINDOW 39 0 0 Left 0
WINDOW 3 48 40 Left 2
SYMATTR Value 0.7V
SYMATTR InstName V1
SYMBOL npn 2112 192 R270
SYMATTR InstName Q3
SYMBOL res 2016 112 R0
SYMATTR InstName R6
SYMATTR Value 5k
SYMBOL cap 2016 208 R0
SYMATTR InstName C2
SYMATTR Value 100n
SYMBOL voltage -448 0 R0
WINDOW 123 0 0 Left 0
WINDOW 39 0 0 Left 0
WINDOW 3 48 40 Left 2
SYMATTR Value 15
SYMATTR InstName V4
SYMBOL res 688 -128 R180
WINDOW 0 36 76 Left 2
WINDOW 3 36 40 Left 2
SYMATTR InstName R7
SYMATTR Value 0.01R
SYMBOL cap 1840 128 R0
SYMATTR InstName C1
SYMATTR Value 100n
SYMBOL 74hc74 432 432 R0
SYMATTR InstName U4
SYMBOL res 800 496 R90
WINDOW 0 0 56 VBottom 2
WINDOW 3 32 56 VTop 2
SYMATTR InstName R8
SYMATTR Value 10k
SYMBOL cap 768 512 R0
SYMATTR InstName C4
SYMATTR Value 2n
SYMBOL npn 816 640 R0
SYMATTR InstName Q4
SYMBOL res 832 672 R90
WINDOW 0 0 56 VBottom 2
WINDOW 3 32 56 VTop 2
SYMATTR InstName R11
SYMATTR Value 100R
SYMBOL Comparators\\LT1011 1072 496 R0
SYMATTR InstName U5
SYMBOL res 1152 400 R0
SYMATTR InstName R12
SYMATTR Value 3.3k
SYMBOL voltage 976 560 R0
WINDOW 123 0 0 Left 0
WINDOW 39 0 0 Left 0
WINDOW 3 48 40 Left 2
SYMATTR Value 3.5V
SYMATTR InstName V6
SYMBOL res 560 368 R90
WINDOW 0 0 56 VBottom 2
WINDOW 3 32 56 VTop 2
SYMATTR InstName R4
SYMATTR Value 10k
TEXT -168 -224 Left 2 !.tran 0.5ms
TEXT -208 -312 Left 2 !.include 74hc.lib
TEXT 944 -360 Left 2 !K L1 L3 0.99
TEXT 728 -208 Left 2 ;Adding input R helps ltspice sim. non start issue.
TEXT 1504 -248 Left 2 ;Must be careful. do not load or drive, so that comparator cannot pick\nout the current limit, because it's too fast. it's easy  to see timing go wrong.
TEXT -440 568 Left 2 ;Having RC charged by VCC. guarantees a cold-start pulse.\n- we get clearly defined phases\n- start pulse.\n- finish of current ramp .\n- finish cycle. fixed timing.
TEXT 1488 -8 Left 2 ;- flyback needs a blocking rectifier.\n- forward converter needs a reset winding, and freewheeling diode on secondary\n- if ramp is greater than 50% of cycle, need slope compensation
TEXT 1504 -168 Left 2 ;74hc74 pinout appears the same as 74hc74d.\n \ninputs are considered active lo.\nCLR/ RD (pin 1) hi, turns Q hi. CLR dominates.  (reset as active low)\nPRE / SD  (pin 4 ) hi, turns Q lo. ~Q high.
TEXT 1488 440 Left 2 ;comparator on RC not needed. But might be betteru\nfor freq stability, versus using a cmos gate without clear threshold.\nmight be temperature sensitive.\nnexperia at 4.5V.   hi 3.15V min to 2.4V typ, = 16% freq variation
