Version 4
SHEET 1 2932 680
WIRE 1024 -144 768 -144
WIRE 2624 -128 2336 -128
WIRE 768 -80 768 -144
WIRE 1024 -80 1024 -144
WIRE 2272 -80 2224 -80
WIRE 864 0 768 0
WIRE 1024 0 928 0
WIRE 304 48 272 48
WIRE 528 48 496 48
WIRE 704 48 608 48
WIRE 1168 64 1072 64
WIRE -192 80 -272 80
WIRE 304 80 192 80
WIRE 1296 80 1248 80
WIRE -272 96 -272 80
WIRE -192 96 -192 80
WIRE 1024 96 768 96
WIRE 1168 96 1024 96
WIRE 528 112 496 112
WIRE 960 112 960 48
WIRE 960 112 608 112
WIRE 2528 112 2496 112
WIRE 2624 112 2624 -128
WIRE 2624 112 2592 112
WIRE 1712 128 1648 128
WIRE 1792 128 1712 128
WIRE 1872 128 1792 128
WIRE 2032 128 1872 128
WIRE 1648 192 1472 192
WIRE 1744 192 1712 192
WIRE 2256 208 2032 208
WIRE 2336 208 2336 -32
WIRE 2496 208 2496 112
WIRE 2496 208 2416 208
WIRE 2528 208 2496 208
WIRE 2624 224 2624 112
WIRE 2624 224 2592 224
WIRE 2528 240 2480 240
WIRE 1712 256 1648 256
WIRE 1792 256 1792 192
WIRE 1792 256 1712 256
WIRE 1872 256 1872 208
WIRE 1872 256 1792 256
WIRE 1744 272 1744 192
WIRE 1744 272 1472 272
WIRE 272 288 272 48
WIRE 528 288 528 112
WIRE 528 288 272 288
WIRE 1072 336 1072 64
WIRE 2624 336 2624 224
WIRE 2624 336 1072 336
WIRE 192 384 192 80
WIRE 1296 384 1296 80
WIRE 1296 384 192 384
WIRE 2336 432 2336 208
WIRE 2272 480 2224 480
WIRE 2624 528 2624 336
WIRE 2624 528 2336 528
FLAG -192 96 0
FLAG -272 0 VCC
FLAG -272 176 VEE
FLAG 400 -32 VCC
FLAG 400 192 VCC
FLAG 768 176 0
FLAG 1184 128 0
FLAG 1200 32 VCC
FLAG 1200 128 VEE
FLAG 1296 0 VCC
FLAG 1872 256 0
FLAG 2032 288 0
FLAG 2560 192 VCC
FLAG 2560 256 VEE
FLAG 2480 320 0
FLAG 2224 560 0
FLAG 992 320 0
FLAG 2224 0 0
FLAG 448 -272 LP15V
FLAG 768 -144 LP15V
FLAG 448 -192 0
SYMBOL voltage -272 -16 R0
WINDOW 123 0 0 Left 0
WINDOW 39 0 0 Left 0
WINDOW 3 48 40 Left 2
SYMATTR Value 5
SYMATTR InstName V2
SYMBOL voltage -272 80 R0
WINDOW 123 0 0 Left 0
WINDOW 39 0 0 Left 0
WINDOW 0 36 39 Left 2
SYMATTR InstName V3
SYMATTR Value 0
SYMBOL 74hc74 400 -32 R0
SYMATTR InstName U1
SYMBOL ind2 752 -96 R0
SYMATTR InstName L1
SYMATTR Value 200µ
SYMATTR Type ind
SYMBOL npn 704 0 R0
SYMATTR InstName Q1
SYMBOL res 752 80 R0
SYMATTR InstName R1
SYMATTR Value 0.7R
SYMBOL res 624 32 R90
WINDOW 0 0 56 VBottom 2
WINDOW 3 32 56 VTop 2
SYMATTR InstName R3
SYMATTR Value 250R
SYMBOL res 624 96 R90
WINDOW 0 0 56 VBottom 2
WINDOW 3 32 56 VTop 2
SYMATTR InstName R4
SYMATTR Value 250R
SYMBOL ind2 1040 16 R180
WINDOW 0 36 80 Left 2
WINDOW 3 36 40 Left 2
SYMATTR InstName L2
SYMATTR Value 200µ
SYMATTR Type ind
SYMBOL npn 960 0 R0
SYMATTR InstName Q2
SYMBOL ind2 1488 288 R180
WINDOW 0 36 80 Left 2
WINDOW 3 36 40 Left 2
SYMATTR InstName L3
SYMATTR Value 12000µ
SYMATTR Type ind
SYMBOL Comparators\\LT1011 1200 80 R0
SYMATTR InstName U2
SYMBOL res 1280 -16 R0
SYMATTR InstName R2
SYMATTR Value 3.3k
SYMBOL diode 1664 192 R180
WINDOW 0 24 64 Left 2
WINDOW 3 24 0 Left 2
SYMATTR InstName D1
SYMBOL diode 1728 192 R180
WINDOW 0 24 64 Left 2
WINDOW 3 24 0 Left 2
SYMATTR InstName D2
SYMBOL diode 1664 256 R180
WINDOW 0 24 64 Left 2
WINDOW 3 24 0 Left 2
SYMATTR InstName D3
SYMBOL diode 1728 256 R180
WINDOW 0 24 64 Left 2
WINDOW 3 24 0 Left 2
SYMATTR InstName D4
SYMBOL cap 1776 128 R0
SYMATTR InstName C1
SYMATTR Value 100n
SYMBOL res 1856 112 R0
SYMATTR InstName R5
SYMATTR Value 2k
SYMBOL res 2016 112 R0
SYMATTR InstName R6
SYMATTR Value 10k
SYMBOL res 2016 192 R0
SYMATTR InstName R7
SYMATTR Value 50R
SYMBOL OpAmps\\LT1006 2560 160 R0
SYMATTR InstName U3
SYMBOL cap 2592 96 R90
WINDOW 0 0 32 VBottom 2
WINDOW 3 32 32 VTop 2
SYMATTR InstName C2
SYMATTR Value 5n
SYMBOL voltage 2480 224 R0
WINDOW 123 0 0 Left 0
WINDOW 39 0 0 Left 0
WINDOW 3 -48 45 Left 2
WINDOW 0 -64 24 Left 2
SYMATTR Value 0.5V
SYMATTR InstName V1
SYMBOL res 2352 192 R90
WINDOW 0 0 56 VBottom 2
WINDOW 3 32 56 VTop 2
SYMATTR InstName R8
SYMATTR Value 1R
SYMBOL npn 2272 432 R0
SYMATTR InstName Q3
SYMBOL voltage 2224 464 R0
WINDOW 123 0 0 Left 0
WINDOW 39 0 0 Left 0
WINDOW 3 -83 42 Left 2
WINDOW 0 -80 14 Left 2
SYMATTR Value 0.9
SYMATTR InstName V4
SYMBOL voltage 992 224 R0
WINDOW 123 0 0 Left 0
WINDOW 39 0 0 Left 0
WINDOW 3 -48 45 Left 2
WINDOW 0 -64 24 Left 2
SYMATTR Value 0.5V
SYMATTR InstName V5
SYMBOL res 2432 192 R90
WINDOW 0 0 56 VBottom 2
WINDOW 3 32 56 VTop 2
SYMATTR InstName R9
SYMATTR Value 10k
SYMBOL pnp 2272 -32 M180
SYMATTR InstName Q4
SYMBOL voltage 2224 -96 R0
WINDOW 123 0 0 Left 0
WINDOW 39 0 0 Left 0
WINDOW 3 -85 56 Left 2
WINDOW 0 -84 25 Left 2
SYMATTR Value -0.1V
SYMATTR InstName V6
SYMBOL voltage 448 -288 R0
WINDOW 123 0 0 Left 0
WINDOW 39 0 0 Left 0
WINDOW 3 -48 45 Left 2
WINDOW 0 -64 24 Left 2
SYMATTR Value 15V
SYMATTR InstName V7
TEXT -168 -224 Left 2 !.tran 1ms
TEXT -208 -312 Left 2 !.include 74hc.lib
TEXT 1432 -584 Left 2 ;Doinng 100V / 50mA.  \nIt is about full load. the divider resistor works. can set what ever votlag we want\n   \ncurrent mode control push-pull.\nswitching is positive hystersis for blanking.\n5V to 100V \nref voltage is 0.5V. between the 0.7 and 0.1V clamps. of integrator, used for feedback loop.\n \nlarger resevoir cap, before voltage feedback tap, slows the entire loop response.\n \nNote. 1V to PN emitter.\nThe current-sense resistor can be made to actsas emitter degenerator. \nWhich smooths the ordinary linear current ramp
TEXT 944 -360 Left 2 !K L1 L2 L3 0.99
