Version 4
SHEET 1 1904 680
WIRE 1024 -144 768 -144
WIRE 768 -80 768 -144
WIRE 1024 -80 1024 -144
WIRE 1408 -80 1280 -80
WIRE 864 0 768 0
WIRE 1408 0 1280 0
WIRE 304 48 272 48
WIRE 528 48 496 48
WIRE 704 48 608 48
WIRE -192 80 -272 80
WIRE 192 80 -32 80
WIRE 304 80 192 80
WIRE -272 96 -272 80
WIRE -192 96 -192 80
WIRE -32 96 -32 80
WIRE 1024 96 768 96
WIRE 528 112 496 112
WIRE 960 112 960 48
WIRE 960 112 608 112
WIRE 272 288 272 48
WIRE 528 288 528 112
WIRE 528 288 272 288
FLAG -32 176 0
FLAG -192 96 0
FLAG -272 0 VCC
FLAG -272 176 VEE
FLAG 400 -32 VCC
FLAG 192 80 FET_SET
FLAG 400 192 VCC
FLAG 768 -144 VCC
FLAG 768 176 0
FLAG 1408 0 0
SYMBOL voltage -32 80 R0
WINDOW 123 0 0 Left 0
WINDOW 39 0 0 Left 0
WINDOW 3 -157 127 Left 2
SYMATTR Value PULSE(0 5 0.01ms 10ns 10ns 0.05ms 0.1ms 10)
SYMATTR InstName VIN
SYMBOL voltage -272 -16 R0
WINDOW 123 0 0 Left 0
WINDOW 39 0 0 Left 0
WINDOW 3 48 40 Left 2
SYMATTR Value 5
SYMATTR InstName V2
SYMBOL voltage -272 80 R0
WINDOW 123 0 0 Left 0
WINDOW 39 0 0 Left 0
WINDOW 0 36 39 Left 2
SYMATTR InstName V3
SYMATTR Value 0
SYMBOL 74hc74 400 -32 R0
SYMATTR InstName U1
SYMBOL ind2 752 -96 R0
SYMATTR InstName L1
SYMATTR Value 5m
SYMATTR Type ind
SYMBOL npn 704 0 R0
SYMATTR InstName Q1
SYMBOL res 752 80 R0
SYMATTR InstName R1
SYMATTR Value 10R
SYMBOL res 624 32 R90
WINDOW 0 0 56 VBottom 2
WINDOW 3 32 56 VTop 2
SYMATTR InstName R3
SYMATTR Value 1k
SYMBOL res 624 96 R90
WINDOW 0 0 56 VBottom 2
WINDOW 3 32 56 VTop 2
SYMATTR InstName R4
SYMATTR Value 1k
SYMBOL ind2 1040 16 R180
WINDOW 0 36 80 Left 2
WINDOW 3 36 40 Left 2
SYMATTR InstName L2
SYMATTR Value 5m
SYMATTR Type ind
SYMBOL npn 960 0 R0
SYMATTR InstName Q2
SYMBOL ind2 1296 16 R180
WINDOW 0 36 80 Left 2
WINDOW 3 36 40 Left 2
SYMATTR InstName L3
SYMATTR Value 10m
SYMATTR Type ind
SYMBOL res 1392 -96 R0
SYMATTR InstName R5
SYMATTR Value 1k
TEXT 136 320 Left 2 !.tran 1ms
TEXT -208 -312 Left 2 !.include 74hc.lib
TEXT -208 -264 Left 2 !.include LM311.301
TEXT 192 -288 Left 2 ;comparator should use hystersis for blanking.
TEXT 944 -360 Left 2 !K L1 L2 L3 1
