Version 4
SHEET 1 5720 1740
WIRE 1664 -144 1600 -144
WIRE 1920 -144 1664 -144
WIRE 2080 -144 2000 -144
WIRE 720 -80 720 -144
WIRE 1168 -80 1168 -144
WIRE 1600 -80 1424 -80
WIRE 1696 -80 1664 -80
WIRE 1664 -16 1600 -16
WIRE 2000 -16 2000 -80
WIRE 2080 -16 2080 -64
WIRE 2080 -16 2000 -16
WIRE 720 0 656 0
WIRE 816 0 720 0
WIRE 1168 0 1104 0
WIRE 1264 0 1168 0
WIRE 1504 0 1424 0
WIRE 656 48 592 48
WIRE 1104 48 1040 48
WIRE 2080 64 2000 64
WIRE 1696 80 1696 -80
WIRE 1696 80 1424 80
WIRE 2000 80 2000 64
WIRE 816 96 720 96
WIRE 1168 96 816 96
WIRE 1664 144 1664 -16
WIRE 1920 144 1664 144
WIRE 2080 144 2000 144
WIRE 464 384 432 384
WIRE 16 400 -144 400
WIRE 16 432 16 400
WIRE 432 432 432 384
WIRE -896 464 -928 464
WIRE -784 464 -816 464
WIRE 1040 480 976 480
WIRE 1168 496 1104 496
WIRE 160 512 112 512
WIRE 208 512 160 512
WIRE 544 512 544 384
WIRE 544 512 528 512
WIRE 592 512 544 512
WIRE 864 512 784 512
WIRE 880 512 864 512
WIRE 1040 512 880 512
WIRE -448 528 -496 528
WIRE -928 544 -928 464
WIRE -880 544 -928 544
WIRE -320 544 -384 544
WIRE -144 544 -144 400
WIRE -144 544 -320 544
WIRE -784 560 -784 464
WIRE -784 560 -816 560
WIRE -640 560 -784 560
WIRE -448 560 -640 560
WIRE -880 576 -928 576
WIRE 176 576 112 576
WIRE 976 576 976 480
WIRE -928 640 -928 576
WIRE 880 640 880 512
WIRE -496 672 -496 528
WIRE 592 688 592 512
WIRE 736 688 592 688
WIRE -496 736 -496 672
WIRE -928 752 -928 640
WIRE 16 800 16 656
WIRE 432 800 432 656
WIRE 432 800 16 800
WIRE 1168 800 1168 496
WIRE 1168 800 432 800
WIRE 80 1008 48 1008
WIRE 368 1008 272 1008
WIRE 416 1008 368 1008
WIRE 16 1040 16 800
WIRE 80 1040 16 1040
WIRE 304 1072 272 1072
WIRE 368 1104 368 1008
WIRE 416 1104 368 1104
WIRE 48 1232 48 1008
WIRE 304 1232 304 1072
WIRE 304 1232 48 1232
WIRE 368 1232 304 1232
WIRE 416 1232 368 1232
WIRE -240 1248 -320 1248
WIRE -320 1264 -320 1248
WIRE -240 1264 -240 1248
WIRE 368 1344 368 1232
WIRE 416 1344 368 1344
FLAG -240 1264 0
FLAG -320 1168 VCC
FLAG -320 1344 VEE
FLAG 720 176 0
FLAG -496 1264 0
FLAG -496 1184 P15V
FLAG 720 -224 P15V
FLAG -80 544 0
FLAG 880 736 0
FLAG 784 576 0
FLAG 1104 512 0
FLAG 1072 464 VCC
FLAG 1072 528 VEE
FLAG 1168 416 VCC
FLAG 976 656 0
FLAG 336 512 0
FLAG 336 544 0
FLAG 704 512 VCC
FLAG -80 512 0
FLAG -928 384 0
FLAG -848 528 VCC
FLAG -848 592 VEE
FLAG 864 512 CRAMP
FLAG 816 96 IRAMP
FLAG -1008 576 IRAMP
FLAG 160 512 SW
FLAG -384 560 0
FLAG -416 512 VCC
FLAG -416 576 VEE
FLAG -496 816 0
FLAG -320 464 VCC
FLAG 176 576 CSW
FLAG -640 560 SUMRAMP
FLAG -928 848 0
FLAG -1072 800 CSW
FLAG -1008 640 CRAMP
FLAG -496 672 ISET
FLAG 176 928 VCC
FLAG 176 1152 VCC
FLAG 416 1040 SW
FLAG 416 1136 SW
FLAG 608 1024 SW1
FLAG 608 1248 SW2
FLAG 592 48 SW1
FLAG 1168 -224 P15V
FLAG 1040 48 SW2
FLAG 2080 -16 0
FLAG 608 1120 SW1
FLAG 416 1264 SW
FLAG 416 1376 SW
FLAG 608 1360 SW2
FLAG 1504 0 0
FLAG 2080 64 0
SYMBOL voltage -320 1152 R0
WINDOW 123 0 0 Left 0
WINDOW 39 0 0 Left 0
WINDOW 3 48 40 Left 2
SYMATTR Value 5
SYMATTR InstName V2
SYMBOL voltage -320 1248 R0
WINDOW 123 0 0 Left 0
WINDOW 39 0 0 Left 0
WINDOW 0 36 39 Left 2
SYMATTR InstName V3
SYMATTR Value 0
SYMBOL 74hc74 16 432 R0
SYMATTR InstName U1
SYMBOL ind2 704 -96 R0
SYMATTR InstName L1
SYMATTR Value 80µ
SYMATTR Type ind
SYMBOL npn 656 0 R0
SYMATTR InstName Q1
SYMATTR Value FJL4315
SYMBOL res 704 80 R0
SYMATTR InstName R1
SYMATTR Value 0.1R
SYMBOL ind2 1408 16 M180
WINDOW 0 36 80 Left 2
WINDOW 3 36 40 Left 2
SYMATTR InstName L3
SYMATTR Value 5000µ
SYMATTR Type ind
SYMBOL voltage -496 1168 R0
WINDOW 123 0 0 Left 0
WINDOW 39 0 0 Left 0
WINDOW 3 48 40 Left 2
SYMATTR Value 15
SYMATTR InstName V4
SYMBOL res 736 -128 R180
WINDOW 0 36 76 Left 2
WINDOW 3 36 40 Left 2
SYMATTR InstName R7
SYMATTR Value 0.01R
SYMBOL 74hc74 432 432 R0
SYMATTR InstName U4
SYMBOL res 800 496 R90
WINDOW 0 0 56 VBottom 2
WINDOW 3 32 56 VTop 2
SYMATTR InstName R8
SYMATTR Value 2.0k
SYMBOL cap 768 512 R0
SYMATTR InstName C4
SYMATTR Value 12n
SYMBOL npn 816 640 R0
SYMATTR InstName Q4
SYMBOL res 832 672 R90
WINDOW 0 0 56 VBottom 2
WINDOW 3 32 56 VTop 2
SYMATTR InstName R11
SYMATTR Value 100R
SYMBOL res 1152 400 R0
SYMATTR InstName R12
SYMATTR Value 3.3k
SYMBOL voltage 976 560 R0
WINDOW 123 0 0 Left 0
WINDOW 39 0 0 Left 0
WINDOW 3 48 40 Left 2
SYMATTR Value 1V
SYMATTR InstName V6
SYMBOL OpAmps\\LT1006 -848 496 R0
WINDOW 3 30 120 Left 2
SYMATTR InstName U3
SYMBOL res -912 480 R180
WINDOW 0 36 76 Left 2
WINDOW 3 36 40 Left 2
SYMATTR InstName R6
SYMATTR Value 10k
SYMBOL res -800 448 R90
WINDOW 0 0 56 VBottom 2
WINDOW 3 32 56 VTop 2
SYMATTR InstName R9
SYMATTR Value 10k
SYMBOL res -1024 592 R270
WINDOW 0 32 56 VTop 2
WINDOW 3 85 57 VBottom 2
SYMATTR InstName R10
SYMATTR Value 10k
SYMBOL res -1024 656 R270
WINDOW 0 -32 55 VTop 2
WINDOW 3 -32 56 VBottom 2
SYMATTR InstName R13
SYMATTR Value 10k
SYMBOL res -336 448 R0
SYMATTR InstName R14
SYMATTR Value 3.3k
SYMBOL voltage -496 720 R0
WINDOW 123 0 0 Left 0
WINDOW 39 0 0 Left 0
WINDOW 3 48 40 Left 2
SYMATTR Value 0.3V
SYMATTR InstName V5
SYMBOL res 560 368 R90
WINDOW 0 0 56 VBottom 2
WINDOW 3 32 56 VTop 2
SYMATTR InstName R4
SYMATTR Value 10k
SYMBOL npn -992 752 R0
SYMATTR InstName Q3
SYMBOL res -976 784 R90
WINDOW 0 0 56 VBottom 2
WINDOW 3 32 56 VTop 2
SYMATTR InstName R2
SYMATTR Value 5k
SYMBOL 74hc74 176 928 R0
SYMATTR InstName U2
SYMBOL 74hc08 464 960 R0
SYMATTR InstName U7
SYMBOL 74hc08 464 1056 R0
SYMATTR InstName U8
SYMBOL ind2 1184 16 R180
WINDOW 0 36 80 Left 2
WINDOW 3 36 40 Left 2
SYMATTR InstName L2
SYMATTR Value 80µ
SYMATTR Type ind
SYMBOL npn 1104 0 R0
SYMATTR InstName Q2
SYMATTR Value FJL4315
SYMBOL res 1184 -128 R180
WINDOW 0 36 76 Left 2
WINDOW 3 36 40 Left 2
SYMATTR InstName R17
SYMATTR Value 0.01R
SYMBOL diode 1616 -80 R180
WINDOW 0 24 64 Left 2
WINDOW 3 24 0 Left 2
SYMATTR InstName D5
SYMBOL diode 1680 -80 R180
WINDOW 0 24 64 Left 2
WINDOW 3 24 0 Left 2
SYMATTR InstName D6
SYMBOL diode 1616 -16 R180
WINDOW 0 24 64 Left 2
WINDOW 3 24 0 Left 2
SYMATTR InstName D7
SYMBOL diode 1680 -16 R180
WINDOW 0 24 64 Left 2
WINDOW 3 24 0 Left 2
SYMATTR InstName D8
SYMBOL cap 1984 -144 R0
SYMATTR InstName C2
SYMATTR Value 0.2µ
SYMBOL res 2064 -160 R0
SYMATTR InstName R5
SYMATTR Value 1k
SYMBOL ind2 1904 -128 R270
WINDOW 0 32 56 VTop 2
WINDOW 3 5 56 VBottom 2
SYMATTR InstName L5
SYMATTR Value 47µ
SYMATTR Type ind
SYMBOL 74hc08 464 1184 R0
SYMATTR InstName U9
SYMBOL 74hc08 464 1296 R0
SYMATTR InstName U10
SYMBOL res 624 1008 R90
WINDOW 0 0 56 VBottom 2
WINDOW 3 32 56 VTop 2
SYMATTR InstName R15
SYMATTR Value 150R
SYMBOL res 624 1104 R90
WINDOW 0 0 56 VBottom 2
WINDOW 3 32 56 VTop 2
SYMATTR InstName R18
SYMATTR Value 150R
SYMBOL res 624 1232 R90
WINDOW 0 0 56 VBottom 2
WINDOW 3 32 56 VTop 2
SYMATTR InstName R19
SYMATTR Value 150R
SYMBOL res 624 1344 R90
WINDOW 0 0 56 VBottom 2
WINDOW 3 32 56 VTop 2
SYMATTR InstName R20
SYMATTR Value 150R
SYMBOL xcomp_x11 1072 432 R0
SYMATTR InstName U11
SYMATTR Value LM311
SYMBOL xcomp_x11 -416 480 R0
SYMATTR InstName U5
SYMATTR Value LM311
SYMBOL ind2 1408 96 M180
WINDOW 0 36 80 Left 2
WINDOW 3 36 40 Left 2
SYMATTR InstName L4
SYMATTR Value 5000µ
SYMATTR Type ind
SYMBOL ind2 1904 160 R270
WINDOW 0 32 56 VTop 2
WINDOW 3 5 56 VBottom 2
SYMATTR InstName L6
SYMATTR Value 47µ
SYMATTR Type ind
SYMBOL cap 1984 80 R0
SYMATTR InstName C1
SYMATTR Value 0.2µ
SYMBOL res 2064 48 R0
SYMATTR InstName R3
SYMATTR Value 20k
TEXT -168 -224 Left 2 !.tran 0.5ms
TEXT -208 -312 Left 2 !.include 74hc.lib
TEXT 1024 -456 Left 2 !K L1 L2 L3 L4 0.99.5
TEXT 1592 608 Left 2 ;current mode control,  with slope compensation to support duty cycle > 50%.\nIset controls power\n \nSlope compensation is implemented by summing the cycle periodic ramp \nwith the sensed current signal.\n \nfail case, if iset is too high (ie. exceed cramp) then do not get switch off cross\nevent. need clamp.  OR second safety current trip point comparator that can fire \nanytime in the cycle, to protect bjt/fet switch.\n \nflyback needs snubber, voltage regulation feedback loop.\nforward converter, needs reset winding, and boost topology secondary.\npush pull,  would mux the bjt to turn on,  with another flipflop/and gate\n \nIn a push pull the extra complementary magnetic winding, will work for the reset/snubber.\nOr the output windings will, with a non blocking rectifier.
TEXT 1592 232 Left 2 ;EXTR. With transformer coupling the current-ramp slope is determined by\nthe inductor on the secondary. same as a forward converter.\nlA R or C load without energy storage, results in short-sharp  current ramp.\n \nadding storage (an inductor) on the secondary, slows the ramp as seen on primary\n \nIf increase Load (eg. R=5R), then should increase cap size,\nSo that inductor is *not* loaded, and current ramp is shallower.\nthis isn't intuitive. Because larger cap size, means stepper ramp at cold-start.\nOR just add energy storage inductor on the secondary. SO that the \ntransformer current doesnt see 0Z load of just the cap.
TEXT -184 -368 Left 2 !.include standard.bjt
TEXT -176 -272 Left 2 !.include LM311.301
TEXT 1056 -376 Left 2 ;BUG - L4 is not coupled. - fixed.
