Version 4
SHEET 1 3028 1268
WIRE 1424 -672 1424 -752
WIRE 1872 -672 1424 -672
WIRE 1424 -592 1424 -672
WIRE 1872 -592 1872 -672
WIRE 2496 -560 2432 -560
WIRE 2608 -560 2496 -560
WIRE 2768 -560 2688 -560
WIRE 2432 -496 2256 -496
WIRE 2528 -496 2496 -496
WIRE 2496 -432 2432 -432
WIRE 2688 -432 2688 -496
WIRE 2688 -432 2496 -432
WIRE 2768 -432 2768 -480
WIRE 2768 -432 2688 -432
WIRE 1424 -416 1424 -512
WIRE 1520 -416 1424 -416
WIRE 1872 -416 1872 -512
WIRE 1872 -416 1584 -416
WIRE 2528 -416 2528 -496
WIRE 2528 -416 2256 -416
WIRE 1360 -368 1296 -368
WIRE 1984 -368 1936 -368
WIRE 1520 -320 1424 -320
WIRE 1680 -320 1520 -320
WIRE 1872 -320 1680 -320
WIRE 1680 -240 1680 -320
WIRE 1776 -240 1680 -240
WIRE 1296 -112 1296 -368
WIRE 1424 -112 1296 -112
WIRE 1984 -112 1984 -368
WIRE 1984 -112 1504 -112
WIRE 912 -48 832 -48
WIRE 832 -32 832 -48
WIRE 912 -32 912 -48
FLAG 912 -32 0
FLAG 832 -128 VCC
FLAG 832 48 VEE
FLAG 656 -32 0
FLAG 656 -112 P15V
FLAG 1680 -160 0
FLAG 1424 -832 P15V
FLAG 1520 -320 IRAMP
FLAG 2768 -432 0
FLAG 1216 -368 P15V
FLAG 2064 -368 P15V
SYMBOL voltage 832 -144 R0
WINDOW 123 0 0 Left 0
WINDOW 39 0 0 Left 0
WINDOW 3 48 40 Left 2
SYMATTR Value 5
SYMATTR InstName V2
SYMBOL voltage 832 -48 R0
WINDOW 123 0 0 Left 0
WINDOW 39 0 0 Left 0
WINDOW 0 36 39 Left 2
SYMATTR InstName V3
SYMATTR Value 0
SYMBOL voltage 656 -128 R0
WINDOW 123 0 0 Left 0
WINDOW 39 0 0 Left 0
WINDOW 3 48 40 Left 2
SYMATTR Value 15
SYMATTR InstName V4
SYMBOL ind2 1408 -608 R0
SYMATTR InstName L1
SYMATTR Value 1000µ
SYMATTR Type ind
SYMBOL npn 1360 -416 R0
SYMATTR InstName Q1
SYMBOL res 1312 -384 R90
WINDOW 0 0 56 VBottom 2
WINDOW 3 32 56 VTop 2
SYMATTR InstName R3
SYMATTR Value 5k
SYMBOL ind2 1856 -496 M180
WINDOW 0 36 80 Left 2
WINDOW 3 36 40 Left 2
SYMATTR InstName L2
SYMATTR Value 1000µ
SYMATTR Type ind
SYMBOL res 1440 -736 R180
WINDOW 0 36 76 Left 2
WINDOW 3 36 40 Left 2
SYMATTR InstName R4
SYMATTR Value 0.01R
SYMBOL ind2 1408 -96 R270
WINDOW 0 32 56 VTop 2
WINDOW 3 4 56 VBottom 2
SYMATTR InstName L3
SYMATTR Value 0.01µ
SYMATTR Type ind
SYMBOL npn 1936 -416 M0
SYMATTR InstName Q2
SYMBOL diode 2448 -496 R180
WINDOW 0 24 64 Left 2
WINDOW 3 24 0 Left 2
SYMATTR InstName D1
SYMBOL diode 2512 -496 R180
WINDOW 0 24 64 Left 2
WINDOW 3 24 0 Left 2
SYMATTR InstName D2
SYMBOL diode 2448 -432 R180
WINDOW 0 24 64 Left 2
WINDOW 3 24 0 Left 2
SYMATTR InstName D3
SYMBOL diode 2512 -432 R180
WINDOW 0 24 64 Left 2
WINDOW 3 24 0 Left 2
SYMATTR InstName D4
SYMBOL cap 2672 -560 R0
SYMATTR InstName C1
SYMATTR Value 1µ
SYMBOL res 2752 -576 R0
SYMATTR InstName R7
SYMATTR Value 20R
SYMBOL cap 1584 -432 R90
WINDOW 0 0 32 VBottom 2
WINDOW 3 32 32 VTop 2
SYMATTR InstName C2
SYMATTR Value 0.2µ
SYMBOL ind2 2272 -400 R180
WINDOW 0 36 80 Left 2
WINDOW 3 36 40 Left 2
SYMATTR InstName L4
SYMATTR Value 1000µ
SYMATTR Type ind
SYMBOL res 1664 -256 R0
SYMATTR InstName R1
SYMATTR Value 0.1R
SYMBOL res 2080 -384 R90
WINDOW 0 0 56 VBottom 2
WINDOW 3 32 56 VTop 2
SYMATTR InstName R6
SYMATTR Value 5k
SYMBOL ind 2592 -544 R270
WINDOW 0 32 56 VTop 2
WINDOW 3 5 56 VBottom 2
SYMATTR InstName L6
SYMATTR Value 1000µ
TEXT 696 -272 Left 2 !.tran 10ms
TEXT 656 -360 Left 2 !.include 74hc.lib
TEXT 1904 -872 Left 2 !K L1 L2 L3 L4 0.99
TEXT 2424 -952 Left 2 ;LC=100uH/1uF=15kHz.
TEXT 2200 -280 Left 2 ;EXTR. The capacitive load- is what gives it the hf harmonic. eg. 100uF.\nAnd too much drive. from the base drive inductor.
