Version 4
SHEET 1 5720 1268
WIRE 1152 -80 624 -80
WIRE 544 0 544 -80
WIRE 640 0 544 0
WIRE 944 0 944 -144
WIRE 944 0 704 0
WIRE 1056 0 944 0
WIRE 1152 0 1152 -80
WIRE 1152 0 1136 0
WIRE 944 64 944 0
WIRE 1136 64 1136 0
WIRE 272 96 176 96
WIRE 464 96 272 96
WIRE 544 96 544 0
WIRE 560 96 544 96
WIRE 784 112 624 112
WIRE 880 112 864 112
WIRE 560 128 464 128
WIRE -208 384 -288 384
WIRE -288 400 -288 384
WIRE -208 400 -208 384
FLAG -208 400 0
FLAG -288 304 VCC
FLAG -288 480 VEE
FLAG -464 400 0
FLAG -464 320 P15V
FLAG 176 176 0
FLAG 272 96 DRIVE
FLAG 592 144 VCC
FLAG 592 80 VEE
FLAG 464 208 0
FLAG 1136 128 0
FLAG 944 -224 VCC
FLAG 944 240 0
SYMBOL voltage -288 288 R0
WINDOW 123 0 0 Left 0
WINDOW 39 0 0 Left 0
WINDOW 3 48 40 Left 2
SYMATTR Value 5
SYMATTR InstName V2
SYMBOL voltage -288 384 R0
WINDOW 123 0 0 Left 0
WINDOW 39 0 0 Left 0
WINDOW 0 36 39 Left 2
SYMATTR InstName V3
SYMATTR Value 0
SYMBOL voltage -464 304 R0
WINDOW 123 0 0 Left 0
WINDOW 39 0 0 Left 0
WINDOW 3 48 40 Left 2
SYMATTR Value 15
SYMATTR InstName V4
SYMBOL voltage 176 80 R0
WINDOW 123 0 0 Left 0
WINDOW 39 0 0 Left 0
WINDOW 3 -545 49 Left 2
SYMATTR Value PULSE(2 3 1us 10ns 10ns 25us 50us 7)
SYMATTR InstName V1
SYMBOL voltage 464 112 R0
WINDOW 123 0 0 Left 0
WINDOW 39 0 0 Left 0
WINDOW 3 -78 78 Left 2
WINDOW 0 -77 54 Left 2
SYMATTR Value 2.5
SYMATTR InstName V7
SYMBOL res 560 80 R90
WINDOW 0 0 56 VBottom 2
WINDOW 3 -49 62 VTop 2
SYMATTR InstName R15
SYMATTR Value 10k
SYMBOL OpAmps\\LT1006 592 176 M180
SYMATTR InstName U1
SYMBOL cap 1120 64 R0
SYMATTR InstName C1
SYMATTR Value 2n
SYMBOL res 1040 16 R270
WINDOW 0 32 56 VTop 2
WINDOW 3 0 56 VBottom 2
SYMATTR InstName R1
SYMATTR Value 2.5k
SYMBOL cap 704 -16 R90
WINDOW 0 0 32 VBottom 2
WINDOW 3 -53 31 VTop 2
SYMATTR InstName C3
SYMATTR Value 0.5n
SYMBOL res 640 -96 R90
WINDOW 0 0 56 VBottom 2
WINDOW 3 32 56 VTop 2
SYMATTR InstName R2
SYMATTR Value 10k
SYMBOL npn 880 64 R0
SYMATTR InstName Q1
SYMBOL res 880 96 R90
WINDOW 0 0 56 VBottom 2
WINDOW 3 32 56 VTop 2
SYMATTR InstName R3
SYMATTR Value 5k
SYMBOL res 928 -240 R0
SYMATTR InstName R4
SYMATTR Value 50R
SYMBOL res 928 144 R0
SYMATTR InstName R5
SYMATTR Value 1R
TEXT -88 -224 Left 2 !.tran 0.5ms
TEXT 1040 -624 Left 2 ;- problem is the diodes are operating to near 0V.o for the  op.\n- there is issue of anti-parallel diodes in op-amp. probably should be jfet.\n- jfet is not single supply, and has issue of input and output range.
TEXT 1120 -432 Left 2 ;An integrator, with the sharp edges blunted by RC low pass filter.\nneed to see what happens, if drive through a bjt.\nDo we even need an integrator. switch the bjt on. and feedback the drain?
