Version 4
SHEET 1 5720 1268
WIRE 1024 -224 960 -224
WIRE 1056 -112 960 -112
FLAG 512 -96 0
FLAG 512 -176 VCC
FLAG 912 -320 0
FLAG 912 -400 DRIVE
FLAG 848 -224 DRIVE
FLAG 848 -112 DRIVE
SYMBOL voltage 512 -192 R0
WINDOW 123 0 0 Left 0
WINDOW 39 0 0 Left 0
WINDOW 3 48 40 Left 2
SYMATTR Value 5
SYMATTR InstName V2
SYMBOL voltage 912 -416 R0
WINDOW 123 0 0 Left 0
WINDOW 39 0 0 Left 0
WINDOW 3 -545 49 Left 2
SYMATTR Value PULSE(0 1 1us 10ns 10ns 25us 50us 7)
SYMATTR InstName V1
SYMBOL 74hc04 896 -288 R0
SYMATTR InstName U3
SYMBOL 74hc14 896 -160 R0
SYMATTR InstName U4
TEXT 200 -264 Left 2 !.tran 0.5ms
TEXT 192 -200 Left 2 !.include 74hc.lib
