Version 4
SHEET 1 2932 680
WIRE 928 -144 672 -144
WIRE 672 -80 672 -144
WIRE 928 -80 928 -144
WIRE 768 0 672 0
WIRE 928 0 832 0
WIRE 208 48 176 48
WIRE 432 48 400 48
WIRE 608 48 512 48
WIRE 1168 64 1120 64
WIRE -192 80 -272 80
WIRE 208 80 96 80
WIRE 1296 80 1248 80
WIRE 1376 80 1296 80
WIRE -272 96 -272 80
WIRE -192 96 -192 80
WIRE 928 96 672 96
WIRE 1168 96 928 96
WIRE 432 112 400 112
WIRE 864 112 864 48
WIRE 864 112 512 112
WIRE 1712 128 1648 128
WIRE 1792 128 1712 128
WIRE 1920 128 1920 112
WIRE 1920 128 1792 128
WIRE 1968 128 1920 128
WIRE 2048 128 1968 128
WIRE 2448 128 2144 128
WIRE 1648 192 1472 192
WIRE 1744 192 1712 192
WIRE 2096 208 2096 192
WIRE 2096 208 1968 208
WIRE 1712 256 1648 256
WIRE 1792 256 1792 192
WIRE 1792 256 1712 256
WIRE 1872 256 1792 256
WIRE 1744 272 1744 192
WIRE 1744 272 1472 272
WIRE 176 288 176 48
WIRE 432 288 432 112
WIRE 432 288 176 288
WIRE 96 384 96 80
WIRE 1296 384 1296 80
WIRE 1296 384 96 384
WIRE 1120 416 1120 64
FLAG -192 96 0
FLAG -272 0 VCC
FLAG -272 176 VEE
FLAG 304 -32 VCC
FLAG 304 192 VCC
FLAG 672 176 0
FLAG 1184 128 0
FLAG 1200 32 VCC
FLAG 1200 128 VEE
FLAG 1296 0 VCC
FLAG 2448 208 0
FLAG 1120 496 0
FLAG 1872 256 0
FLAG 1968 272 0
FLAG -48 0 0
FLAG -48 -80 P15V
FLAG 672 -224 P15V
FLAG 1376 144 0
SYMBOL voltage -272 -16 R0
WINDOW 123 0 0 Left 0
WINDOW 39 0 0 Left 0
WINDOW 3 48 40 Left 2
SYMATTR Value 5
SYMATTR InstName V2
SYMBOL voltage -272 80 R0
WINDOW 123 0 0 Left 0
WINDOW 39 0 0 Left 0
WINDOW 0 36 39 Left 2
SYMATTR InstName V3
SYMATTR Value 0
SYMBOL 74hc74 304 -32 R0
SYMATTR InstName U1
SYMBOL ind2 656 -96 R0
SYMATTR InstName L1
SYMATTR Value 500µ
SYMATTR Type ind
SYMBOL npn 608 0 R0
SYMATTR InstName Q1
SYMBOL res 656 80 R0
SYMATTR InstName R1
SYMATTR Value 0.3R
SYMBOL res 528 32 R90
WINDOW 0 0 56 VBottom 2
WINDOW 3 32 56 VTop 2
SYMATTR InstName R3
SYMATTR Value 250R
SYMBOL res 528 96 R90
WINDOW 0 0 56 VBottom 2
WINDOW 3 32 56 VTop 2
SYMATTR InstName R4
SYMATTR Value 250R
SYMBOL ind2 944 16 R180
WINDOW 0 36 80 Left 2
WINDOW 3 36 40 Left 2
SYMATTR InstName L2
SYMATTR Value 500µ
SYMATTR Type ind
SYMBOL npn 864 0 R0
SYMATTR InstName Q2
SYMBOL ind2 1488 288 R180
WINDOW 0 36 80 Left 2
WINDOW 3 36 40 Left 2
SYMATTR InstName L3
SYMATTR Value 30m
SYMATTR Type ind
SYMBOL Comparators\\LT1011 1200 80 R0
SYMATTR InstName U2
SYMBOL res 1280 -16 R0
SYMATTR InstName R2
SYMATTR Value 3.3k
SYMBOL diode 1664 192 R180
WINDOW 0 24 64 Left 2
WINDOW 3 24 0 Left 2
SYMATTR InstName D1
SYMBOL diode 1728 192 R180
WINDOW 0 24 64 Left 2
WINDOW 3 24 0 Left 2
SYMATTR InstName D2
SYMBOL diode 1664 256 R180
WINDOW 0 24 64 Left 2
WINDOW 3 24 0 Left 2
SYMATTR InstName D3
SYMBOL diode 1728 256 R180
WINDOW 0 24 64 Left 2
WINDOW 3 24 0 Left 2
SYMATTR InstName D4
SYMBOL cap 1776 128 R0
SYMATTR InstName C1
SYMATTR Value 500n
SYMBOL res 2432 112 R0
SYMATTR InstName R5
SYMATTR Value 2k
SYMBOL voltage 1120 400 R0
WINDOW 123 0 0 Left 0
WINDOW 39 0 0 Left 0
WINDOW 3 48 40 Left 2
SYMATTR Value 0.3V
SYMATTR InstName V1
SYMBOL npn 2048 192 R270
SYMATTR InstName Q3
SYMBOL res 1952 112 R0
SYMATTR InstName R6
SYMATTR Value 5k
SYMBOL cap 1952 208 R0
SYMATTR InstName C2
SYMATTR Value 100n
SYMBOL voltage -48 -96 R0
WINDOW 123 0 0 Left 0
WINDOW 39 0 0 Left 0
WINDOW 3 48 40 Left 2
SYMATTR Value 15
SYMATTR InstName V4
SYMBOL res 688 -128 R180
WINDOW 0 36 76 Left 2
WINDOW 3 36 40 Left 2
SYMATTR InstName R7
SYMATTR Value 0.01R
SYMBOL cap 1360 80 R0
SYMATTR InstName C3
SYMATTR Value 2n
TEXT -168 -224 Left 2 !.tran 5ms
TEXT -208 -312 Left 2 !.include 74hc.lib
TEXT 1592 -264 Left 2 ;110V/50mA   from 15V. \nRC on the comparator output works. to define fastest freq.\n3.3k/2n = 24kHz.\n \n \nAdd R/C eg. a weak pullup at the comparator - to set the max freq, and just\nlet the bjt to go into saturation.\nalternatively fixed freq might be nicer.\n \nThe resevoir cap after rectifier must be reduced, othrwise presents too much\nload and will not start.\neg. the ramp is high slope because of magnetic loading. And therefore frequency\nis very high, until cap charges.\nSo the capacitive load at start. also the resistive load. means ramp is high. means freq very high.
TEXT 944 -360 Left 2 !K L1 L2 L3 0.9
TEXT 728 -208 Left 2 ;Adding input R helps non start issue.
