Version 4
SHEET 1 5720 1268
WIRE 1088 80 1024 80
WIRE 480 96 416 96
WIRE 1216 96 1168 96
WIRE 912 112 832 112
WIRE 928 112 912 112
WIRE 1088 112 928 112
WIRE 592 160 592 112
WIRE 592 160 464 160
WIRE 1024 176 1024 80
WIRE 480 192 480 128
WIRE 592 192 480 192
WIRE 464 224 464 160
WIRE 480 224 464 224
WIRE 592 240 592 192
WIRE 640 240 592 240
WIRE 928 240 928 112
WIRE 640 288 640 240
WIRE 784 288 640 288
WIRE 96 384 16 384
WIRE 16 400 16 384
WIRE 96 400 96 384
WIRE 416 400 416 96
WIRE 1216 400 1216 96
WIRE 1216 400 416 400
WIRE 640 448 640 288
WIRE 816 448 720 448
WIRE 480 576 480 256
WIRE 816 576 816 448
WIRE 816 576 480 576
FLAG 96 400 0
FLAG 16 304 VCC
FLAG 16 480 VEE
FLAG -160 400 0
FLAG -160 320 P15V
FLAG 928 336 0
FLAG 832 176 0
FLAG 1104 144 0
FLAG 1120 48 VCC
FLAG 1120 144 VEE
FLAG 1216 16 VCC
FLAG 1024 256 0
FLAG 752 112 VCC
FLAG 912 112 CRAMP
FLAG 720 512 0
SYMBOL voltage 16 288 R0
WINDOW 123 0 0 Left 0
WINDOW 39 0 0 Left 0
WINDOW 3 48 40 Left 2
SYMATTR Value 5
SYMATTR InstName V2
SYMBOL voltage 16 384 R0
WINDOW 123 0 0 Left 0
WINDOW 39 0 0 Left 0
WINDOW 0 36 39 Left 2
SYMATTR InstName V3
SYMATTR Value 0
SYMBOL voltage -160 304 R0
WINDOW 123 0 0 Left 0
WINDOW 39 0 0 Left 0
WINDOW 3 48 40 Left 2
SYMATTR Value 15
SYMATTR InstName V4
SYMBOL res 848 96 R90
WINDOW 0 0 56 VBottom 2
WINDOW 3 32 56 VTop 2
SYMATTR InstName R8
SYMATTR Value 10k
SYMBOL cap 816 112 R0
SYMATTR InstName C4
SYMATTR Value 20n
SYMBOL npn 864 240 R0
SYMATTR InstName Q4
SYMBOL res 880 272 R90
WINDOW 0 0 56 VBottom 2
WINDOW 3 32 56 VTop 2
SYMATTR InstName R11
SYMATTR Value 200R
SYMBOL Comparators\\LT1011 1120 96 R0
SYMATTR InstName U5
SYMBOL res 1200 0 R0
SYMATTR InstName R12
SYMATTR Value 3.3k
SYMBOL voltage 1024 160 R0
WINDOW 123 0 0 Left 0
WINDOW 39 0 0 Left 0
WINDOW 3 48 40 Left 2
SYMATTR Value 1V
SYMATTR InstName V6
SYMBOL 74hc02 528 48 R0
SYMATTR InstName U1
SYMBOL 74hc02 528 176 R0
SYMATTR InstName U2
SYMBOL res 736 432 R90
WINDOW 0 0 56 VBottom 2
WINDOW 3 32 56 VTop 2
SYMATTR InstName R1
SYMATTR Value 10k
SYMBOL cap 704 448 R0
SYMATTR InstName C1
SYMATTR Value 100p
TEXT -168 -224 Left 2 !.tran 0.5ms
TEXT -208 -312 Left 2 !.include 74hc.lib
TEXT -192 -152 Left 2 !.ic V(CRAMP)=0
