Version 4
SHEET 1 5720 1740
WIRE 976 -160 400 -160
WIRE 1664 -144 1600 -144
WIRE 1920 -144 1664 -144
WIRE 2080 -144 2000 -144
WIRE 400 -96 400 -160
WIRE 976 -96 976 -160
WIRE 1600 -80 1424 -80
WIRE 1696 -80 1664 -80
WIRE 496 -16 400 -16
WIRE 1072 -16 976 -16
WIRE 1664 -16 1600 -16
WIRE 2000 -16 2000 -80
WIRE 2080 -16 2080 -64
WIRE 2080 -16 2000 -16
WIRE 1504 0 1424 0
WIRE 336 32 320 32
WIRE 912 32 896 32
WIRE 2080 64 2000 64
WIRE 1696 80 1696 -80
WIRE 1696 80 1424 80
WIRE 2000 80 2000 64
WIRE 400 112 400 80
WIRE 400 112 320 112
WIRE 976 112 976 80
WIRE 976 112 400 112
WIRE 1664 144 1664 -16
WIRE 1920 144 1664 144
WIRE 2080 144 2000 144
WIRE 400 192 320 192
WIRE 1104 272 960 272
WIRE 992 320 976 320
WIRE 992 352 928 352
WIRE 1104 352 1104 272
WIRE 928 368 928 352
WIRE 1104 368 1104 352
WIRE 1136 368 1104 368
WIRE 992 432 992 384
WIRE 1136 432 992 432
WIRE 1280 432 1280 416
WIRE 1104 448 1104 368
WIRE 1104 448 992 448
WIRE 1280 448 1280 432
WIRE -336 464 -384 464
WIRE -208 480 -272 480
WIRE -80 480 -208 480
WIRE 928 480 912 480
WIRE 944 480 928 480
WIRE 992 480 992 448
WIRE -336 496 -528 496
WIRE 128 496 32 496
WIRE 480 496 448 496
WIRE 816 496 672 496
WIRE 1136 496 1136 432
WIRE 1136 496 1104 496
WIRE 928 512 928 480
WIRE 992 512 928 512
WIRE 480 528 320 528
WIRE -80 544 -80 512
WIRE 64 544 -80 544
WIRE 32 560 32 496
WIRE 32 560 -80 560
WIRE 704 560 672 560
WIRE -80 592 -80 560
WIRE -384 608 -384 464
WIRE 64 608 64 544
WIRE 64 608 32 608
WIRE 96 608 64 608
WIRE -528 672 -528 496
WIRE -384 672 -384 608
WIRE 976 672 976 320
WIRE 1104 672 976 672
WIRE 960 704 960 272
WIRE 992 704 960 704
WIRE 992 736 928 736
WIRE 1104 736 1104 672
WIRE 928 752 928 736
WIRE 1104 752 1104 736
WIRE 1136 752 1104 752
WIRE 992 816 992 768
WIRE 1136 816 992 816
WIRE 1280 816 1280 800
WIRE 1104 832 1104 752
WIRE 1104 832 992 832
WIRE 1280 832 1280 816
WIRE 928 864 912 864
WIRE 944 864 928 864
WIRE 992 864 992 832
WIRE 448 880 448 496
WIRE 704 880 704 560
WIRE 704 880 448 880
WIRE 816 880 704 880
WIRE 1136 880 1136 816
WIRE 1136 880 1104 880
WIRE 928 896 928 864
WIRE 992 896 928 896
WIRE -576 1056 -704 1056
WIRE 0 1152 -64 1152
WIRE -704 1168 -704 1056
WIRE 128 1168 64 1168
WIRE -496 1184 -496 1056
WIRE -496 1184 -592 1184
WIRE -448 1184 -496 1184
WIRE -176 1184 -256 1184
WIRE -160 1184 -176 1184
WIRE 0 1184 -160 1184
WIRE -704 1232 -704 1200
WIRE -560 1232 -704 1232
WIRE -592 1248 -592 1184
WIRE -592 1248 -704 1248
WIRE -64 1248 -64 1152
WIRE -704 1280 -704 1248
WIRE -560 1296 -560 1232
WIRE -560 1296 -592 1296
WIRE -160 1312 -160 1184
WIRE -448 1360 -448 1184
WIRE -304 1360 -448 1360
WIRE -704 1472 -704 1312
WIRE -448 1472 -704 1472
WIRE 128 1472 128 1168
WIRE 128 1472 -448 1472
FLAG -704 256 0
FLAG -704 176 VCC
FLAG 400 272 0
FLAG -880 272 0
FLAG -880 192 P15V
FLAG 400 -240 P15V
FLAG -160 1408 0
FLAG -256 1248 0
FLAG 64 1184 0
FLAG 32 1136 VCC
FLAG 128 1088 VCC
FLAG -64 1328 0
FLAG -336 1184 VCC
FLAG -176 1184 CRAMP
FLAG 320 192 IRAMP
FLAG -608 496 IRAMP
FLAG 128 496 SW
FLAG -272 496 0
FLAG -304 448 VCC
FLAG -384 752 0
FLAG -208 400 VCC
FLAG 96 608 CSW
FLAG -528 768 0
FLAG -672 720 CSW
FLAG -384 608 ISET
FLAG 576 416 VCC
FLAG 576 640 VCC
FLAG 816 528 SW
FLAG 1360 432 SW1
FLAG 2080 -16 0
FLAG 1504 0 0
FLAG 2080 64 0
FLAG 320 32 SW1
FLAG 896 32 SW2
FLAG 1280 320 VCC
FLAG 1280 544 0
FLAG -448 1184 QRST
FLAG -448 1472 RST
FLAG -768 1056 0
FLAG -304 512 0
FLAG 32 1200 0
FLAG -80 624 QRST
FLAG 320 528 QRST
FLAG 816 912 SW
FLAG 1360 816 SW2
FLAG 1280 704 VCC
FLAG 1280 928 0
FLAG 1104 272 A0
FLAG 1136 432 A1
FLAG 1104 672 B0
FLAG 1136 816 B1
SYMBOL voltage -704 160 R0
WINDOW 123 0 0 Left 0
WINDOW 39 0 0 Left 0
WINDOW 3 48 40 Left 2
SYMATTR Value 5
SYMATTR InstName V2
SYMBOL ind2 384 -112 R0
SYMATTR InstName L1
SYMATTR Value 80µ
SYMATTR Type ind
SYMBOL npn 336 -16 R0
SYMATTR InstName Q1
SYMATTR Value FJL4315
SYMBOL res 384 176 R0
SYMATTR InstName R1
SYMATTR Value 0.1R
SYMBOL ind2 1408 16 M180
WINDOW 0 36 80 Left 2
WINDOW 3 36 40 Left 2
SYMATTR InstName L3
SYMATTR Value 5000µ
SYMATTR Type ind
SYMBOL voltage -880 176 R0
WINDOW 123 0 0 Left 0
WINDOW 39 0 0 Left 0
WINDOW 3 48 40 Left 2
SYMATTR Value 15
SYMATTR InstName V4
SYMBOL res 416 -144 R180
WINDOW 0 36 76 Left 2
WINDOW 3 36 40 Left 2
SYMATTR InstName R7
SYMATTR Value 0.01R
SYMBOL res -240 1168 R90
WINDOW 0 0 56 VBottom 2
WINDOW 3 32 56 VTop 2
SYMATTR InstName R8
SYMATTR Value 10k
SYMBOL cap -272 1184 R0
SYMATTR InstName C4
SYMATTR Value 1.5n
SYMBOL npn -224 1312 R0
SYMATTR InstName Q4
SYMBOL res -208 1344 R90
WINDOW 0 0 56 VBottom 2
WINDOW 3 32 56 VTop 2
SYMATTR InstName R11
SYMATTR Value 100R
SYMBOL res 112 1072 R0
SYMATTR InstName R12
SYMATTR Value 3.3k
SYMBOL voltage -64 1232 R0
WINDOW 123 0 0 Left 0
WINDOW 39 0 0 Left 0
WINDOW 3 48 40 Left 2
SYMATTR Value 1V
SYMATTR InstName V6
SYMBOL res -624 512 R270
WINDOW 0 32 56 VTop 2
WINDOW 3 85 57 VBottom 2
SYMATTR InstName R10
SYMATTR Value 1k
SYMBOL res -224 384 R0
SYMATTR InstName R14
SYMATTR Value 3.3k
SYMBOL voltage -384 656 R0
WINDOW 123 0 0 Left 0
WINDOW 39 0 0 Left 0
WINDOW 3 48 40 Left 2
SYMATTR Value 0.6V
SYMATTR InstName V5
SYMBOL res -480 1040 R90
WINDOW 0 0 56 VBottom 2
WINDOW 3 32 56 VTop 2
SYMATTR InstName R4
SYMATTR Value 10k
SYMBOL npn -592 672 R0
SYMATTR InstName Q3
SYMBOL res -576 704 R90
WINDOW 0 0 56 VBottom 2
WINDOW 3 32 56 VTop 2
SYMATTR InstName R2
SYMATTR Value 1k
SYMBOL 74hc74 576 416 R0
SYMATTR InstName U2
SYMBOL ind2 992 0 R180
WINDOW 0 36 80 Left 2
WINDOW 3 36 40 Left 2
SYMATTR InstName L2
SYMATTR Value 80µ
SYMATTR Type ind
SYMBOL npn 912 -16 R0
SYMATTR InstName Q2
SYMATTR Value FJL4315
SYMBOL diode 1616 -80 R180
WINDOW 0 24 64 Left 2
WINDOW 3 24 0 Left 2
SYMATTR InstName D5
SYMBOL diode 1680 -80 R180
WINDOW 0 24 64 Left 2
WINDOW 3 24 0 Left 2
SYMATTR InstName D6
SYMBOL diode 1616 -16 R180
WINDOW 0 24 64 Left 2
WINDOW 3 24 0 Left 2
SYMATTR InstName D7
SYMBOL diode 1680 -16 R180
WINDOW 0 24 64 Left 2
WINDOW 3 24 0 Left 2
SYMATTR InstName D8
SYMBOL cap 1984 -144 R0
SYMATTR InstName C2
SYMATTR Value 0.2µ
SYMBOL res 2064 -160 R0
SYMATTR InstName R5
SYMATTR Value 1k
SYMBOL ind2 1904 -128 R270
WINDOW 0 32 56 VTop 2
WINDOW 3 5 56 VBottom 2
SYMATTR InstName L5
SYMATTR Value 47µ
SYMATTR Type ind
SYMBOL xcomp_x11 32 1104 R0
SYMATTR InstName U11
SYMATTR Value LM311
SYMBOL xcomp_x11 -304 416 R0
SYMATTR InstName U5
SYMATTR Value LM311
SYMBOL ind2 1408 96 M180
WINDOW 0 36 80 Left 2
WINDOW 3 36 40 Left 2
SYMATTR InstName L4
SYMATTR Value 5000µ
SYMATTR Type ind
SYMBOL ind2 1904 160 R270
WINDOW 0 32 56 VTop 2
WINDOW 3 5 56 VBottom 2
SYMATTR InstName L6
SYMATTR Value 47µ
SYMATTR Type ind
SYMBOL cap 1984 80 R0
SYMATTR InstName C1
SYMATTR Value 0.2µ
SYMBOL res 2064 48 R0
SYMATTR InstName R3
SYMATTR Value 1k
SYMBOL res 1232 480 R90
WINDOW 0 0 56 VBottom 2
WINDOW 3 32 56 VTop 2
SYMATTR InstName R16
SYMATTR Value 1k
SYMBOL npn 1216 448 R0
SYMATTR InstName Q5
SYMATTR Value 2N3904
SYMBOL npn 1216 320 R0
SYMATTR InstName Q7
SYMATTR Value 2N3904
SYMBOL res 1232 352 R90
WINDOW 0 0 56 VBottom 2
WINDOW 3 32 56 VTop 2
SYMATTR InstName R6
SYMATTR Value 1k
SYMBOL res 1376 416 R90
WINDOW 0 0 56 VBottom 2
WINDOW 3 32 56 VTop 2
SYMATTR InstName R13
SYMATTR Value 25R
SYMBOL res 384 96 R0
SYMATTR InstName R15
SYMATTR Value 0.1R
SYMBOL 74hc02 -32 432 R0
SYMATTR InstName U9
SYMBOL 74hc02 -32 544 R0
SYMATTR InstName U1
SYMBOL 74hc02 -656 1120 R0
SYMATTR InstName U4
SYMBOL 74hc02 -656 1232 R0
SYMATTR InstName U10
SYMBOL cap -704 1040 R90
WINDOW 0 0 32 VBottom 2
WINDOW 3 32 32 VTop 2
SYMATTR InstName C3
SYMATTR Value 20p
SYMBOL 74hc02 1040 432 R0
SYMATTR InstName U13
SYMBOL 74hc08 864 448 R0
SYMATTR InstName U6
SYMBOL 74hc02 864 432 R270
SYMATTR InstName U3
SYMBOL res 1232 864 R90
WINDOW 0 0 56 VBottom 2
WINDOW 3 32 56 VTop 2
SYMATTR InstName R9
SYMATTR Value 1k
SYMBOL npn 1216 832 R0
SYMATTR InstName Q6
SYMATTR Value 2N3904
SYMBOL npn 1216 704 R0
SYMATTR InstName Q8
SYMATTR Value 2N3904
SYMBOL res 1232 736 R90
WINDOW 0 0 56 VBottom 2
WINDOW 3 32 56 VTop 2
SYMATTR InstName R17
SYMATTR Value 1k
SYMBOL res 1376 800 R90
WINDOW 0 0 56 VBottom 2
WINDOW 3 32 56 VTop 2
SYMATTR InstName R18
SYMATTR Value 25R
SYMBOL 74hc02 1040 816 R0
SYMATTR InstName U8
SYMBOL 74hc08 864 832 R0
SYMATTR InstName U14
SYMBOL 74hc02 864 816 R270
SYMATTR InstName U15
SYMBOL 74hc27 1040 272 R0
SYMATTR InstName U16
SYMBOL 74hc27 1040 656 R0
SYMATTR InstName U7
TEXT -168 -224 Left 2 !.tran 0.5ms
TEXT -208 -312 Left 2 !.include 74hc.lib
TEXT 1024 -456 Left 2 !K L1 L2 L3 L4 0.99.5
TEXT -184 -368 Left 2 !.include standard.bjt
TEXT -176 -272 Left 2 !.include LM311.301
TEXT 1168 -336 Left 2 ;push pull using darlingtons. works.
TEXT 984 1320 Left 2 ;npn low. to avoid VBE drop, when driving a bjt.\nA small amount of cross conduction of drivers does not matter,\nbecause bjt current Ic is inherently limited.\nthis driver will also work for fets.
TEXT -432 112 Left 2 ;two resistors. one emitter degen for negative feedback, \nto compensate asymetry.\nand the other for current-sense.
TEXT -1008 8 Left 2 ;no slope comp, because core should reset in push pull
TEXT -904 -224 Left 2 !.ic V(IRAMP)=0
TEXT -904 -160 Left 2 !.ic V(SW)=0
TEXT -904 -128 Left 2 !.ic V(CSW)=5
TEXT -112 632 Left 2 ;S
TEXT -112 456 Left 2 ;R
TEXT 32 456 Left 2 ;Q
TEXT 24 632 Left 2 ;~Q
TEXT -736 1320 Left 2 ;S
TEXT -736 1144 Left 2 ;R
TEXT -592 1144 Left 2 ;Q
TEXT -600 1320 Left 2 ;~Q
TEXT -512 -224 Left 2 !.ic V(QRST)=0
TEXT -504 -176 Left 2 !.ic V(RST)=5
TEXT -1016 384 Left 2 ;1k. 10k is too high impedance for comparator.\n100R. is too heavy for bjt to pull low.
TEXT 960 520 Left 2 ;S
TEXT 960 344 Left 2 ;R
TEXT 1104 328 Left 2 ;Q
TEXT 1096 520 Left 2 ;~Q
TEXT 960 904 Left 2 ;S
TEXT 960 728 Left 2 ;R
TEXT 1104 712 Left 2 ;Q
TEXT 1096 904 Left 2 ;~Q
TEXT 1600 344 Left 2 ;all this logic could be done with fpga. But note we would feed cross-conduction\nto external pins, and then back to inputs.
TEXT -904 -344 Left 2 !.ic V(A0)=0 V(A1)=5
TEXT -904 -312 Left 2 !.ic V(B0)=5 V(B1)=0
