Version 4
SHEET 1 5720 1884
WIRE 1664 -144 1600 -144
WIRE 1920 -144 1664 -144
WIRE 2080 -144 2000 -144
WIRE 400 -96 400 -160
WIRE 976 -96 976 -160
WIRE 1600 -80 1424 -80
WIRE 1696 -80 1664 -80
WIRE 496 -16 400 -16
WIRE 1664 -16 1600 -16
WIRE 2000 -16 2000 -80
WIRE 2080 -16 2080 -64
WIRE 2080 -16 2000 -16
WIRE 1504 0 1424 0
WIRE 336 32 192 32
WIRE 976 48 976 -16
WIRE 2080 64 2000 64
WIRE 1696 80 1696 -80
WIRE 1696 80 1424 80
WIRE 2000 80 2000 64
WIRE 400 112 400 80
WIRE 400 112 320 112
WIRE 544 112 400 112
WIRE 1664 144 1664 -16
WIRE 1920 144 1664 144
WIRE 2080 144 2000 144
WIRE -112 368 -144 368
WIRE 0 368 -32 368
WIRE 208 432 160 432
WIRE -144 448 -144 368
WIRE -96 448 -144 448
WIRE 336 448 272 448
WIRE 528 448 336 448
WIRE 0 464 0 368
WIRE 0 464 -32 464
WIRE 80 464 0 464
WIRE 208 464 80 464
WIRE 640 464 624 464
WIRE 688 464 640 464
WIRE 720 464 688 464
WIRE -96 480 -144 480
WIRE 160 496 160 432
WIRE 640 512 640 464
WIRE 640 512 512 512
WIRE 864 528 864 512
WIRE -144 544 -144 480
WIRE 528 544 528 480
WIRE 640 544 528 544
WIRE 864 544 864 528
WIRE 160 560 160 496
WIRE 512 576 512 512
WIRE 528 576 512 576
WIRE 640 592 640 544
WIRE 688 592 640 592
WIRE 720 592 688 592
WIRE 528 608 448 608
WIRE -144 656 -144 544
WIRE 592 912 544 912
WIRE 688 912 672 912
WIRE 176 1024 112 1024
WIRE 544 1024 544 912
WIRE 304 1040 240 1040
WIRE 464 1040 304 1040
WIRE 688 1040 688 912
WIRE 688 1040 656 1040
WIRE 800 1040 688 1040
WIRE 0 1056 -80 1056
WIRE 16 1056 0 1056
WIRE 176 1056 16 1056
WIRE 544 1088 544 1056
WIRE 688 1088 544 1088
WIRE 656 1104 656 1040
WIRE 656 1104 544 1104
WIRE 112 1120 112 1024
WIRE 544 1136 544 1104
WIRE 688 1152 688 1088
WIRE 688 1152 656 1152
WIRE 464 1168 464 1040
WIRE 544 1168 464 1168
WIRE 16 1184 16 1056
FLAG -528 -80 0
FLAG -528 -160 VCC
FLAG 400 192 0
FLAG -704 -64 0
FLAG -704 -144 P15V
FLAG 400 -240 P15V
FLAG -144 288 0
FLAG -64 432 VCC
FLAG 544 112 IRAMP
FLAG -224 480 IRAMP
FLAG 688 464 SW
FLAG 272 464 0
FLAG 240 416 VCC
FLAG 160 640 0
FLAG 336 368 VCC
FLAG 688 592 CSW
FLAG 80 464 SUMRAMP
FLAG -144 752 0
FLAG -288 704 CSW
FLAG -224 544 CRAMP
FLAG 160 496 ISET
FLAG 976 -240 P15V
FLAG 2080 -16 0
FLAG 1504 0 0
FLAG 2080 64 0
FLAG 976 112 0
FLAG 944 528 FSW
FLAG 192 32 FSW
FLAG 864 416 VCC
FLAG 864 640 0
FLAG 16 1280 0
FLAG -80 1120 0
FLAG 240 1056 0
FLAG 208 1008 VCC
FLAG 304 960 VCC
FLAG 112 1200 0
FLAG -160 1056 VCC
FLAG 0 1056 CRAMP
FLAG 208 1072 0
FLAG 448 608 QRST
FLAG -64 496 0
FLAG 240 480 0
FLAG 800 1040 QRST
FLAG 464 1040 RST
FLAG 480 912 0
FLAG 688 1152 CQRST
FLAG -128 1232 QRST
SYMBOL voltage -528 -176 R0
WINDOW 123 0 0 Left 0
WINDOW 39 0 0 Left 0
WINDOW 3 48 40 Left 2
SYMATTR Value 5
SYMATTR InstName V2
SYMBOL ind2 384 -112 R0
SYMATTR InstName L1
SYMATTR Value 80µ
SYMATTR Type ind
SYMBOL npn 336 -16 R0
SYMATTR InstName Q1
SYMATTR Value FJL4315
SYMBOL res 384 96 R0
SYMATTR InstName R1
SYMATTR Value 0.1R
SYMBOL ind2 1408 16 M180
WINDOW 0 36 80 Left 2
WINDOW 3 36 40 Left 2
SYMATTR InstName L3
SYMATTR Value 5000µ
SYMATTR Type ind
SYMBOL voltage -704 -160 R0
WINDOW 123 0 0 Left 0
WINDOW 39 0 0 Left 0
WINDOW 3 48 40 Left 2
SYMATTR Value 15
SYMATTR InstName V4
SYMBOL res 416 -144 R180
WINDOW 0 36 76 Left 2
WINDOW 3 36 40 Left 2
SYMATTR InstName R7
SYMATTR Value 0.01R
SYMBOL OpAmps\\LT1006 -64 400 R0
WINDOW 3 30 120 Left 2
SYMATTR InstName U3
SYMBOL res -128 384 R180
WINDOW 0 36 76 Left 2
WINDOW 3 36 40 Left 2
SYMATTR InstName R6
SYMATTR Value 10k
SYMBOL res -16 352 R90
WINDOW 0 0 56 VBottom 2
WINDOW 3 32 56 VTop 2
SYMATTR InstName R9
SYMATTR Value 10k
SYMBOL res -240 496 R270
WINDOW 0 32 56 VTop 2
WINDOW 3 85 57 VBottom 2
SYMATTR InstName R10
SYMATTR Value 10k
SYMBOL res -240 560 R270
WINDOW 0 -32 55 VTop 2
WINDOW 3 -32 56 VBottom 2
SYMATTR InstName R13
SYMATTR Value 10k
SYMBOL res 320 352 R0
SYMATTR InstName R14
SYMATTR Value 3.3k
SYMBOL voltage 160 544 R0
WINDOW 123 0 0 Left 0
WINDOW 39 0 0 Left 0
WINDOW 3 48 40 Left 2
SYMATTR Value 0.6V
SYMATTR InstName V5
SYMBOL npn -208 656 R0
SYMATTR InstName Q3
SYMBOL res -192 688 R90
WINDOW 0 0 56 VBottom 2
WINDOW 3 32 56 VTop 2
SYMATTR InstName R2
SYMATTR Value 5k
SYMBOL ind2 992 0 R180
WINDOW 0 36 80 Left 2
WINDOW 3 36 40 Left 2
SYMATTR InstName L2
SYMATTR Value 80µ
SYMATTR Type ind
SYMBOL res 992 -144 R180
WINDOW 0 36 76 Left 2
WINDOW 3 36 40 Left 2
SYMATTR InstName R17
SYMATTR Value 0.01R
SYMBOL diode 1616 -80 R180
WINDOW 0 24 64 Left 2
WINDOW 3 24 0 Left 2
SYMATTR InstName D5
SYMBOL diode 1680 -80 R180
WINDOW 0 24 64 Left 2
WINDOW 3 24 0 Left 2
SYMATTR InstName D6
SYMBOL diode 1616 -16 R180
WINDOW 0 24 64 Left 2
WINDOW 3 24 0 Left 2
SYMATTR InstName D7
SYMBOL diode 1680 -16 R180
WINDOW 0 24 64 Left 2
WINDOW 3 24 0 Left 2
SYMATTR InstName D8
SYMBOL cap 1984 -144 R0
SYMATTR InstName C2
SYMATTR Value 0.2µ
SYMBOL res 2064 -160 R0
SYMATTR InstName R5
SYMATTR Value 1k
SYMBOL ind2 1904 -128 R270
WINDOW 0 32 56 VTop 2
WINDOW 3 5 56 VBottom 2
SYMATTR InstName L5
SYMATTR Value 47µ
SYMATTR Type ind
SYMBOL xcomp_x11 240 384 R0
SYMATTR InstName U5
SYMATTR Value LM311
SYMBOL ind2 1408 96 M180
WINDOW 0 36 80 Left 2
WINDOW 3 36 40 Left 2
SYMATTR InstName L4
SYMATTR Value 5000µ
SYMATTR Type ind
SYMBOL ind2 1904 160 R270
WINDOW 0 32 56 VTop 2
WINDOW 3 5 56 VBottom 2
SYMATTR InstName L6
SYMATTR Value 47µ
SYMATTR Type ind
SYMBOL cap 1984 80 R0
SYMATTR InstName C1
SYMATTR Value 0.2µ
SYMBOL res 2064 48 R0
SYMATTR InstName R3
SYMATTR Value 20k
SYMBOL res 816 448 R90
WINDOW 0 0 56 VBottom 2
WINDOW 3 32 56 VTop 2
SYMATTR InstName R16
SYMATTR Value 1k
SYMBOL npn 800 416 R0
SYMATTR InstName Q5
SYMATTR Value 2N3904
SYMBOL res 64 160 R180
WINDOW 0 36 76 Left 2
WINDOW 3 36 40 Left 2
SYMATTR InstName R15
SYMATTR Value 1k
SYMBOL 74hc02 576 400 R0
SYMATTR InstName U4
SYMBOL 74hc02 576 528 R0
SYMATTR InstName U11
SYMBOL diode 992 112 R180
WINDOW 0 24 64 Left 2
WINDOW 3 24 0 Left 2
SYMATTR InstName D1
SYMBOL npn 800 544 R0
SYMATTR InstName Q2
SYMATTR Value 2N3904
SYMBOL res 816 576 R90
WINDOW 0 0 56 VBottom 2
WINDOW 3 32 56 VTop 2
SYMATTR InstName R4
SYMATTR Value 1k
SYMBOL res 960 512 R90
WINDOW 0 0 56 VBottom 2
WINDOW 3 32 56 VTop 2
SYMATTR InstName R8
SYMATTR Value 25R
SYMBOL res -64 1040 R90
WINDOW 0 0 56 VBottom 2
WINDOW 3 32 56 VTop 2
SYMATTR InstName R11
SYMATTR Value 10k
SYMBOL cap -96 1056 R0
SYMATTR InstName C4
SYMATTR Value 1.5n
SYMBOL npn -48 1184 R0
SYMATTR InstName Q4
SYMBOL res -32 1216 R90
WINDOW 0 0 56 VBottom 2
WINDOW 3 32 56 VTop 2
SYMATTR InstName R12
SYMATTR Value 100R
SYMBOL res 288 944 R0
SYMATTR InstName R18
SYMATTR Value 3.3k
SYMBOL voltage 112 1104 R0
WINDOW 123 0 0 Left 0
WINDOW 39 0 0 Left 0
WINDOW 3 48 40 Left 2
SYMATTR Value 1V
SYMATTR InstName V6
SYMBOL xcomp_x11 208 976 R0
SYMATTR InstName U1
SYMATTR Value LM311
SYMBOL res 688 896 R90
WINDOW 0 0 56 VBottom 2
WINDOW 3 32 56 VTop 2
SYMATTR InstName R19
SYMATTR Value 10k
SYMBOL 74hc02 592 976 R0
SYMATTR InstName U6
SYMBOL 74hc02 592 1088 R0
SYMATTR InstName U8
SYMBOL cap 544 896 R90
WINDOW 0 0 32 VBottom 2
WINDOW 3 32 32 VTop 2
SYMATTR InstName C3
SYMATTR Value 20p
TEXT -168 -224 Left 2 !.tran 0.5ms
TEXT -208 -312 Left 2 !.include 74hc.lib
TEXT 1024 -456 Left 2 !K L1 L2 L3 L4 0.99.5
TEXT 1592 608 Left 2 ;current mode control,  with slope compensation to support duty cycle > 50%.\nIset controls power\n \nSlope compensation is implemented by summing the cycle periodic ramp \nwith the sensed current signal.\n \nfail case, if iset is too high (ie. exceed cramp) then do not get switch off cross\nevent. need clamp.  OR second safety current trip point comparator that can fire \nanytime in the cycle, to protect bjt/fet switch.\n \nflyback needs snubber, voltage regulation feedback loop.\nforward converter, needs reset winding, and boost topology secondary.\npush pull,  would mux the bjt to turn on,  with another flipflop/and gate\n \nIn a push pull the extra complementary magnetic winding, will work for the reset/snubber.\nOr the output windings will, with a non blocking rectifier.
TEXT 1592 232 Left 2 ;EXTR. With transformer coupling the current-ramp slope is determined by\nthe inductor on the secondary. same as a forward converter.\nlA R or C load without energy storage, results in short-sharp  current ramp.\n \nadding storage (an inductor) on the secondary, slows the ramp as seen on primary\n \nIf increase Load (eg. R=5R), then should increase cap size,\nSo that inductor is *not* loaded, and current ramp is shallower.\nthis isn't intuitive. Because larger cap size, means stepper ramp at cold-start.\nOR just add energy storage inductor on the secondary. SO that the \ntransformer current doesnt see 0Z load of just the cap.
TEXT -184 -368 Left 2 !.include standard.bjt
TEXT -176 -272 Left 2 !.include LM311.301
TEXT 1168 -336 Left 2 ;current-mode forward converter.\npresumably reset-winding should be wound bifilar with the primary.
TEXT -256 -136 Left 2 !.ic V(CRAMP)=0
TEXT 496 424 Left 2 ;R
TEXT 496 616 Left 2 ;S
TEXT -1032 200 Left 2 !.ic V(IRAMP)=0
TEXT -1032 264 Left 2 !.ic V(SW)=0
TEXT -1032 296 Left 2 !.ic V(CSW)=5
TEXT -640 200 Left 2 !.ic V(QRST)=0
TEXT -632 248 Left 2 !.ic V(CQRST)=5
TEXT 640 424 Left 2 ;Q
TEXT 624 616 Left 2 ;~Q
TEXT 512 1176 Left 2 ;S
TEXT 512 1000 Left 2 ;R
TEXT 656 1000 Left 2 ;Q
TEXT 648 1176 Left 2 ;~Q
