Version 4
SHEET 1 880 680
WIRE 320 48 288 48
WIRE 544 64 432 64
WIRE -192 80 -272 80
WIRE 288 80 288 48
WIRE 288 80 -32 80
WIRE 320 80 288 80
WIRE -272 96 -272 80
WIRE -192 96 -192 80
WIRE -32 96 -32 80
FLAG -32 176 0
FLAG -192 96 0
FLAG -272 0 VCC
FLAG -272 176 VEE
FLAG 544 64 Q
SYMBOL voltage -32 80 R0
WINDOW 123 0 0 Left 0
WINDOW 39 0 0 Left 0
WINDOW 3 -157 127 Left 2
SYMATTR Value PULSE(0 5 0 100ns 100ns 0.5ms 1ms 7)
SYMATTR InstName VIN
SYMBOL voltage -272 -16 R0
WINDOW 123 0 0 Left 0
WINDOW 39 0 0 Left 0
WINDOW 3 48 40 Left 2
SYMATTR Value 5
SYMATTR InstName V2
SYMBOL voltage -272 80 R0
WINDOW 123 0 0 Left 0
WINDOW 39 0 0 Left 0
WINDOW 0 36 39 Left 2
SYMATTR InstName V3
SYMATTR Value 0
SYMBOL 74hc02 368 0 R0
SYMATTR InstName U2
TEXT 136 320 Left 2 !.tran 0.01
TEXT 136 352 Left 2 !.include 74hc.lib
TEXT 248 -64 Left 2 ;nor invert
