Version 4
SHEET 1 2756 1020
WIRE -240 64 -336 64
WIRE -208 64 -240 64
WIRE 96 64 -128 64
WIRE 192 64 96 64
WIRE 416 64 288 64
WIRE 656 64 496 64
WIRE 96 128 96 64
WIRE 48 144 48 -16
WIRE 496 144 496 64
WIRE 96 224 96 192
WIRE 96 224 48 224
WIRE 224 224 224 112
WIRE 112 304 48 304
WIRE 400 304 336 304
FLAG 400 384 0
FLAG -240 64 sig
FLAG 496 208 0
FLAG -544 224 0
FLAG -544 144 P5V
FLAG -336 64 P5V
FLAG 48 -16 P5V
SYMBOL res -112 48 R90
WINDOW 0 0 56 VBottom 2
WINDOW 3 32 56 VTop 2
SYMATTR InstName R1
SYMATTR Value 10Meg
SYMBOL voltage 400 288 R0
WINDOW 123 0 0 Left 0
WINDOW 39 0 0 Left 0
WINDOW 3 -80 141 Left 2
SYMATTR Value PULSE(5 0 0 100n 100n 0.02ms 0.04ms 300)
SYMATTR InstName VIN1
SYMBOL 74hc04 288 368 R180
SYMATTR InstName U3
SYMBOL njf 288 112 M270
WINDOW 0 143 98 VLeft 2
WINDOW 3 111 103 VLeft 2
SYMATTR InstName J1
SYMATTR Value J201
SYMBOL res 512 48 R90
WINDOW 0 0 56 VBottom 2
WINDOW 3 32 56 VTop 2
SYMATTR InstName R2
SYMATTR Value 1R
SYMBOL cap 480 144 R0
SYMATTR InstName C1
SYMATTR Value 100p
SYMBOL 74hc04 176 368 R180
SYMATTR InstName U1
SYMBOL res 64 320 R180
WINDOW 0 36 76 Left 2
WINDOW 3 36 40 Left 2
SYMATTR InstName R3
SYMATTR Value 10k
SYMBOL cap 80 128 R0
SYMATTR InstName C2
SYMATTR Value 1p
SYMBOL res 240 320 R180
WINDOW 0 36 76 Left 2
WINDOW 3 36 40 Left 2
SYMATTR InstName R4
SYMATTR Value 10k
SYMBOL voltage -544 128 R0
WINDOW 123 0 0 Left 0
WINDOW 39 0 0 Left 0
WINDOW 0 36 39 Left 2
SYMATTR InstName V1
SYMATTR Value 5
SYMBOL res 64 240 R180
WINDOW 0 36 76 Left 2
WINDOW 3 36 40 Left 2
SYMATTR InstName R5
SYMATTR Value 7k
TEXT -360 -120 Left 2 !.tran 10ms
TEXT -360 -80 Left 2 !.include 74hc.lib
TEXT 248 -136 Left 2 ;trimmer divider works. but will add own parasitic capacitance.
