Version 4
SHEET 1 2668 952
WIRE 944 -304 864 -304
WIRE 864 -288 864 -304
WIRE 944 -288 944 -304
WIRE 1152 -80 1072 -80
WIRE 1680 -80 1232 -80
WIRE 1584 -16 1552 -16
WIRE 1680 -16 1680 -80
WIRE 1680 -16 1648 -16
WIRE 976 48 784 48
WIRE 1104 48 1056 48
WIRE 1424 64 1168 64
WIRE 1552 64 1552 -16
WIRE 1552 64 1504 64
WIRE 1584 64 1552 64
WIRE 976 80 896 80
WIRE 1072 80 1072 -80
WIRE 1072 80 1056 80
WIRE 1104 80 1072 80
WIRE 1680 80 1680 -16
WIRE 1680 80 1648 80
WIRE 1792 80 1680 80
WIRE 1808 80 1792 80
WIRE 1584 96 1392 96
WIRE 1392 320 1392 96
WIRE 1392 320 1264 320
WIRE 1264 336 1264 320
WIRE 1264 336 1136 336
FLAG 944 -288 0
FLAG 864 -384 VCC2
FLAG 864 -208 VEE2
FLAG 896 80 0
FLAG 1616 48 VCC2
FLAG 1616 112 VEE2
FLAG 1264 240 VCC3
FLAG 1264 416 VEE3
FLAG 1136 32 VCC3
FLAG 1136 96 VEE3
FLAG 1792 80 VOUT
FLAG 784 128 0
FLAG 1136 416 0
SYMBOL voltage 864 -400 R0
WINDOW 123 0 0 Left 0
WINDOW 39 0 0 Left 0
WINDOW 3 42 41 Left 2
SYMATTR Value 15
SYMATTR InstName V1
SYMBOL voltage 864 -304 R0
WINDOW 123 0 0 Left 0
WINDOW 39 0 0 Left 0
WINDOW 0 36 39 Left 2
SYMATTR InstName V4
SYMATTR Value 15
SYMBOL OpAmps\\ADA4625 1136 0 R0
SYMATTR InstName U2
SYMBOL res 1072 32 R90
WINDOW 0 -31 65 VBottom 2
WINDOW 3 -27 57 VTop 2
SYMATTR InstName R6
SYMATTR Value 50R
SYMBOL res 1072 64 R90
WINDOW 0 66 63 VBottom 2
WINDOW 3 67 52 VTop 2
SYMATTR InstName R7
SYMATTR Value 50R
SYMBOL voltage 1264 224 R0
WINDOW 123 0 0 Left 0
WINDOW 39 0 0 Left 0
WINDOW 3 42 41 Left 2
SYMATTR Value 15
SYMATTR InstName V2
SYMBOL voltage 1264 320 R0
WINDOW 123 0 0 Left 0
WINDOW 39 0 0 Left 0
WINDOW 0 36 39 Left 2
SYMATTR InstName V3
SYMATTR Value 15
SYMBOL cap 1648 -32 R90
WINDOW 0 0 32 VBottom 2
WINDOW 3 32 32 VTop 2
SYMATTR InstName C4
SYMATTR Value 20p
SYMBOL res 1520 48 R90
WINDOW 0 -37 59 VBottom 2
WINDOW 3 -27 57 VTop 2
SYMATTR InstName R11
SYMATTR Value 10k
SYMBOL res 1248 -96 R90
WINDOW 0 -37 59 VBottom 2
WINDOW 3 -27 57 VTop 2
SYMATTR InstName R1
SYMATTR Value 50k
SYMBOL OpAmps\\ADA4625 1616 16 R0
SYMATTR InstName U1
SYMBOL voltage 784 32 R0
WINDOW 123 0 0 Left 0
WINDOW 39 0 0 Left 0
WINDOW 3 42 41 Left 2
SYMATTR Value 1mV
SYMATTR InstName V5
SYMBOL voltage 1136 320 R0
WINDOW 123 0 0 Left 0
WINDOW 39 0 0 Left 0
WINDOW 0 36 39 Left 2
SYMATTR InstName V6
SYMATTR Value 1
TEXT 720 -32 Left 2 !.tran 1s
TEXT 1792 -216 Left 2 ;Bob Peases - Another valid way to measure CMRR!\nSo the FB works like another divider.\nSimple. Need to break the supplies of the DUT for test.
TEXT 1128 -40 Left 2 ;DUT
