Version 4
SHEET 1 2756 1020
WIRE -256 -288 -336 -288
WIRE -336 -272 -336 -288
WIRE -256 -272 -256 -288
WIRE -240 64 -336 64
WIRE -208 64 -240 64
WIRE 80 64 -128 64
WIRE 192 64 80 64
WIRE 416 64 288 64
WIRE 656 64 496 64
WIRE 496 144 496 64
WIRE 224 304 224 112
WIRE 560 304 224 304
WIRE 816 304 672 304
WIRE 816 320 816 304
FLAG -256 -272 0
FLAG -336 -368 VCC2
FLAG -336 -192 VEE2
FLAG -640 368 0
FLAG 224 384 0
FLAG 80 64 precharge
FLAG -240 64 sig
FLAG -640 288 L5V
FLAG -336 64 L5V
FLAG 496 208 0
SYMBOL voltage -336 -384 R0
WINDOW 123 0 0 Left 0
WINDOW 39 0 0 Left 0
WINDOW 3 42 41 Left 2
SYMATTR Value 18
SYMATTR InstName V1
SYMBOL voltage -336 -288 R0
WINDOW 123 0 0 Left 0
WINDOW 39 0 0 Left 0
WINDOW 0 36 39 Left 2
SYMATTR InstName V4
SYMATTR Value 18
SYMBOL res -112 48 R90
WINDOW 0 0 56 VBottom 2
WINDOW 3 32 56 VTop 2
SYMATTR InstName R1
SYMATTR Value 10Meg
SYMBOL voltage 224 288 R0
WINDOW 123 0 0 Left 0
WINDOW 39 0 0 Left 0
WINDOW 3 -80 141 Left 2
SYMATTR Value PULSE(5 0 0 100n 100n 0.02ms 0.04ms 70)
SYMATTR InstName VIN1
SYMBOL 74hc04 608 240 R0
SYMATTR InstName U3
SYMBOL njf 288 112 M270
WINDOW 0 143 98 VLeft 2
WINDOW 3 111 103 VLeft 2
SYMATTR InstName J1
SYMATTR Value J201
SYMBOL voltage -640 272 R0
WINDOW 123 0 0 Left 0
WINDOW 39 0 0 Left 0
WINDOW 0 36 39 Left 2
SYMATTR InstName V2
SYMATTR Value 5
SYMBOL res 512 48 R90
WINDOW 0 0 56 VBottom 2
WINDOW 3 32 56 VTop 2
SYMATTR InstName R2
SYMATTR Value 10k
SYMBOL cap 480 144 R0
SYMATTR InstName C1
SYMATTR Value 100p
TEXT -112 -392 Left 2 !.tran 3ms
TEXT -704 800 Left 2 ;If it's +-24 or so . then need discrete bootstrap. can  just steer switch with HV op.\nBut HV ops more limited in high-Z/low Ib input.
TEXT -376 376 Left 2 ;op not bootstrapped.
TEXT -112 -312 Left 2 !.include 74hc.lib
