Version 4
SHEET 1 2336 896
WIRE 880 -192 704 -192
WIRE 1024 -192 880 -192
WIRE 1120 -192 1024 -192
WIRE 880 -160 880 -192
WIRE 816 -112 704 -112
WIRE 880 -64 768 -64
WIRE 880 -16 880 -64
WIRE 192 48 96 48
WIRE 1120 48 1120 -192
WIRE 704 96 704 -16
WIRE 768 96 704 96
WIRE 1056 96 768 96
WIRE 96 144 96 48
WIRE 112 144 96 144
WIRE 192 160 192 48
WIRE 192 160 176 160
WIRE 384 160 192 160
WIRE 704 160 464 160
WIRE 768 160 704 160
WIRE 0 176 -128 176
WIRE 112 176 80 176
WIRE -128 224 -128 176
WIRE 1184 224 1120 224
WIRE 1120 352 1120 288
WIRE 1184 352 1120 352
WIRE 704 480 704 352
WIRE 768 480 768 224
WIRE 768 480 704 480
WIRE 1056 480 768 480
WIRE 704 592 704 480
WIRE -64 640 -144 640
WIRE 880 640 880 64
WIRE 880 640 768 640
WIRE -144 656 -144 640
WIRE -64 656 -64 640
WIRE 816 688 704 688
WIRE 880 768 880 736
WIRE 880 768 704 768
WIRE 1008 768 880 768
WIRE 1120 768 1120 528
WIRE 1120 768 1008 768
FLAG -128 304 0
FLAG -64 656 0
FLAG -144 560 VCC2
FLAG -144 736 VEE2
FLAG 1024 -192 VCC2
FLAG 1008 768 VEE2
FLAG 1184 224 VCC3
FLAG 1184 352 VEE3
FLAG 144 128 VCC3
FLAG 144 192 VEE3
FLAG 464 224 0
SYMBOL voltage -128 208 R0
WINDOW 123 0 0 Left 0
WINDOW 39 0 0 Left 0
WINDOW 3 -446 139 Left 2
SYMATTR Value PULSE(20 -1 0 100n 100n 0.2ms 0.4ms 7)
SYMATTR InstName VIN
SYMBOL res 96 160 R90
WINDOW 0 0 56 VBottom 2
WINDOW 3 32 56 VTop 2
SYMATTR InstName R4
SYMATTR Value 2k
SYMBOL pnp 768 -16 R180
SYMATTR InstName Q1
SYMATTR Value 2N3906
SYMBOL pnp 816 -64 M180
SYMATTR InstName Q3
SYMATTR Value 2N3906
SYMBOL res 688 -208 R0
SYMATTR InstName R6
SYMATTR Value 800R
SYMBOL voltage -144 544 R0
WINDOW 123 0 0 Left 0
WINDOW 39 0 0 Left 0
WINDOW 3 42 41 Left 2
SYMATTR Value 24
SYMATTR InstName V1
SYMBOL voltage -144 640 R0
WINDOW 123 0 0 Left 0
WINDOW 39 0 0 Left 0
WINDOW 0 36 39 Left 2
SYMATTR InstName V4
SYMATTR Value 24
SYMBOL res 864 -32 R0
SYMATTR InstName R8
SYMATTR Value 200k
SYMBOL zener 720 160 R180
WINDOW 0 24 64 Left 2
WINDOW 3 56 35 Left 2
SYMATTR InstName D1
SYMATTR Value BZX84C6V2L
SYMBOL npn 768 592 M0
SYMATTR InstName Q2
SYMATTR Value 2N3904
SYMBOL res 688 672 R0
SYMATTR InstName R1
SYMATTR Value 800R
SYMBOL npn 816 640 R0
SYMATTR InstName Q4
SYMATTR Value 2N3904
SYMBOL res 480 144 R90
WINDOW 0 0 56 VBottom 2
WINDOW 3 32 56 VTop 2
SYMATTR InstName R2
SYMATTR Value 500R
SYMBOL npn 1056 48 R0
SYMATTR InstName Q5
SYMATTR Value 2N3904
SYMBOL pnp 1056 528 M180
SYMATTR InstName Q6
SYMATTR Value 2N3906
SYMBOL res 1104 128 R0
SYMATTR InstName R3
SYMATTR Value 0.01R
SYMBOL res 1104 336 R0
SYMATTR InstName R5
SYMATTR Value 0.01R
SYMBOL cap 752 96 R0
SYMATTR InstName C3
SYMATTR Value 1µ
SYMBOL cap 752 160 R0
SYMATTR InstName C2
SYMATTR Value 1µ
SYMBOL cap 1104 224 R0
SYMATTR InstName C4
SYMATTR Value 1µ
SYMBOL cap 448 160 R0
SYMATTR InstName C1
SYMATTR Value 2.5n
SYMBOL diode 688 160 R0
SYMATTR InstName D2
SYMBOL diode 688 224 R0
SYMATTR InstName D3
SYMBOL diode 688 288 R0
SYMATTR InstName D4
SYMBOL OpAmps\\LT1006 144 96 R0
SYMATTR InstName U1
TEXT -648 144 Left 2 !.tran 3ms
