Version 4
SHEET 1 2756 1020
WIRE -256 -288 -336 -288
WIRE -336 -272 -336 -288
WIRE -256 -272 -256 -288
WIRE 544 -64 496 -64
WIRE 880 -64 544 -64
WIRE 1136 -64 992 -64
WIRE -48 -48 -144 -48
WIRE 1136 -48 1136 -64
WIRE -144 48 -144 -48
WIRE -128 48 -144 48
WIRE -48 64 -48 -48
WIRE -48 64 -64 64
WIRE 80 64 -48 64
WIRE 192 64 80 64
WIRE -336 80 -432 80
WIRE -304 80 -336 80
WIRE -128 80 -224 80
WIRE -432 128 -432 80
FLAG -256 -272 0
FLAG -336 -368 VCC2
FLAG -336 -192 VEE2
FLAG -432 208 0
FLAG 544 16 0
FLAG -96 32 VCC2
FLAG -96 96 VEE2
FLAG 80 64 precharge
FLAG -336 80 sig
SYMBOL voltage -336 -384 R0
WINDOW 123 0 0 Left 0
WINDOW 39 0 0 Left 0
WINDOW 3 42 41 Left 2
SYMATTR Value 18
SYMATTR InstName V1
SYMBOL voltage -336 -288 R0
WINDOW 123 0 0 Left 0
WINDOW 39 0 0 Left 0
WINDOW 0 36 39 Left 2
SYMATTR InstName V4
SYMATTR Value 18
SYMBOL voltage -432 112 R0
WINDOW 123 0 0 Left 0
WINDOW 39 0 0 Left 0
WINDOW 3 -80 141 Left 2
SYMATTR Value PULSE(11 -2 0 100n 100n 0.2ms 0.4ms 7)
SYMATTR InstName VIN2
SYMBOL res -208 64 R90
WINDOW 0 0 56 VBottom 2
WINDOW 3 32 56 VTop 2
SYMATTR InstName R1
SYMATTR Value 1k
SYMBOL voltage 544 -80 R0
WINDOW 123 0 0 Left 0
WINDOW 39 0 0 Left 0
WINDOW 3 -80 141 Left 2
SYMATTR Value PULSE(0 3.3 0 100n 100n 0.02ms 0.04ms 70)
SYMATTR InstName VIN1
SYMBOL OpAmps\\ADA4625 -96 0 R0
SYMATTR InstName U2
SYMBOL 74hc04 928 -128 R0
SYMATTR InstName U3
TEXT -112 -392 Left 2 !.tran 3ms
TEXT -704 800 Left 2 ;If it's +-24 or so . then need discrete bootstrap. can  just steer switch with HV op.\nBut HV ops more limited in high-Z/low Ib input.
TEXT -8 176 Left 2 ;op not bootstrapped.
TEXT -112 -312 Left 2 !.include 74hc.lib
