Version 4
SHEET 1 2336 952
WIRE -256 -288 -336 -288
WIRE 432 -288 256 -288
WIRE 704 -288 432 -288
WIRE 880 -288 704 -288
WIRE 1024 -288 880 -288
WIRE 1120 -288 1024 -288
WIRE -336 -272 -336 -288
WIRE -256 -272 -256 -288
WIRE 432 -256 432 -288
WIRE 880 -256 880 -288
WIRE 368 -208 256 -208
WIRE 816 -208 704 -208
WIRE 432 -160 320 -160
WIRE 880 -160 768 -160
WIRE 1120 48 1120 -288
WIRE 704 96 704 -112
WIRE 784 96 704 96
WIRE 1056 96 784 96
WIRE 1216 144 1120 144
WIRE 784 160 704 160
WIRE -240 240 -400 240
WIRE 256 304 256 -112
WIRE 256 304 96 304
WIRE -400 336 -400 240
WIRE -384 336 -400 336
WIRE -240 352 -240 240
WIRE -240 352 -320 352
WIRE -192 352 -240 352
WIRE 32 352 -112 352
WIRE 896 352 320 352
WIRE 1120 352 896 352
WIRE -496 368 -624 368
WIRE -384 368 -416 368
WIRE -624 416 -624 368
WIRE 1216 416 1120 416
WIRE 704 464 704 160
WIRE 1056 464 704 464
WIRE 704 592 704 464
WIRE 96 640 96 400
WIRE 640 640 96 640
WIRE 800 688 704 688
WIRE 96 768 96 720
WIRE 256 768 256 400
WIRE 256 768 96 768
WIRE 704 768 256 768
WIRE 944 768 704 768
WIRE 1120 768 1120 512
WIRE 1120 768 944 768
FLAG -256 -272 0
FLAG -336 -368 VCC2
FLAG -336 -192 VEE2
FLAG 944 768 VEE2
FLAG 896 352 VOUT
FLAG -624 496 0
FLAG 1216 144 VCC3
FLAG 1216 416 VEE3
FLAG -352 320 VCC3
FLAG -352 384 VEE3
FLAG -112 416 0
FLAG 432 -80 VEE2
FLAG 1024 -288 VCC2
FLAG 880 -80 VEE2
SYMBOL voltage -336 -384 R0
WINDOW 123 0 0 Left 0
WINDOW 39 0 0 Left 0
WINDOW 3 42 41 Left 2
SYMATTR Value 100
SYMATTR InstName V1
SYMBOL voltage -336 -288 R0
WINDOW 123 0 0 Left 0
WINDOW 39 0 0 Left 0
WINDOW 0 36 39 Left 2
SYMATTR InstName V4
SYMATTR Value 100
SYMBOL npn 1056 48 R0
SYMATTR InstName Q5
SYMATTR Value 2N3904
SYMBOL pnp 1056 512 M180
SYMATTR InstName Q6
SYMATTR Value 2N3906
SYMBOL res 80 624 R0
SYMATTR InstName R9
SYMATTR Value 2k
SYMBOL res 688 672 R0
SYMATTR InstName R16
SYMATTR Value 10R
SYMBOL pnp 32 400 M180
SYMATTR InstName Q4
SYMBOL pnp 320 400 R180
SYMATTR InstName Q7
SYMBOL voltage -624 400 R0
WINDOW 123 0 0 Left 0
WINDOW 39 0 0 Left 0
WINDOW 3 -80 141 Left 2
SYMATTR Value PULSE(80 -20 0 100n 100n 0.2ms 0.4ms 7)
SYMATTR InstName VIN2
SYMBOL res -400 352 R90
WINDOW 0 0 56 VBottom 2
WINDOW 3 32 56 VTop 2
SYMATTR InstName R1
SYMATTR Value 1k
SYMBOL res -96 336 R90
WINDOW 0 0 56 VBottom 2
WINDOW 3 32 56 VTop 2
SYMATTR InstName R2
SYMATTR Value 1k
SYMBOL cap -128 352 R0
SYMATTR InstName C2
SYMATTR Value 0.1n
SYMBOL cap 768 96 R0
SYMATTR InstName C4
SYMATTR Value 1µ
SYMBOL OpAmps\\ADA4625 -352 288 R0
SYMATTR InstName U1
SYMBOL zener 1136 416 R180
WINDOW 0 24 64 Left 2
WINDOW 3 24 0 Left 2
SYMATTR InstName D1
SYMATTR Value BZX84C5V1L
SYMBOL zener 720 160 R180
WINDOW 0 24 64 Left 2
WINDOW 3 24 0 Left 2
SYMATTR InstName D2
SYMATTR Value BZX84C10V2L
SYMBOL npn 640 592 R0
SYMATTR InstName Q1
SYMATTR Value 2N3904
SYMBOL pnp 320 -112 R180
SYMATTR InstName Q2
SYMATTR Value 2N3906
SYMBOL pnp 368 -160 M180
SYMATTR InstName Q3
SYMATTR Value 2N3906
SYMBOL res 240 -304 R0
SYMATTR InstName R3
SYMATTR Value 800R
SYMBOL res 416 -176 R0
SYMATTR InstName R4
SYMATTR Value 200k
SYMBOL pnp 768 -112 R180
SYMATTR InstName Q8
SYMATTR Value 2N3906
SYMBOL pnp 816 -160 M180
SYMATTR InstName Q9
SYMATTR Value 2N3906
SYMBOL res 688 -304 R0
SYMATTR InstName R5
SYMATTR Value 800R
SYMBOL res 864 -176 R0
SYMATTR InstName R6
SYMATTR Value 200k
TEXT -112 -392 Left 2 !.tran 3ms
TEXT 336 328 Left 2 ;minus
TEXT 576 832 Left 2 ;Note the current through R16. has high range. eg. 0mA to 1.6mA.\nvery good.\nexcept not. when use idealized current source.
TEXT -16 328 Left 2 ;plus
TEXT 1384 456 Left 2 !.model BZX84C5V1L ako:  BZX84C33VL bv=5.1
TEXT 1384 360 Left 2 !.model BZX84C7V2L ako:  BZX84C33VL bv=7.2
TEXT 1216 -504 Left 2 ;- Ok. this is stable when much faster. eg. ada4625-1, RC =1k/100p. = 1.6MHz. albeit overshoots.\n- have 20V/ in 1uV.\n- -20 to +80 in 1.3uV. = 80uV/s\n- no op27 still needs 1k/3n. or so\n- uses stronger buffered output to drive the feedback.\n- V( SIGNAL - VEE ) diff is set with single zener.\n- thermal difference, goverened by mV dif in thermal coupling of pnps.\n- and zener. could use zener+PN diode. or reference to fix.\n- or 3 pin ref. to stay constant.\n- 9 bjts. 7pnp. 2npn\n- versus 6bjt. for Draft43.asc\n- works at any voltage. - with the right bjts.
TEXT -176 272 Left 2 ;Much faster. stable with 1k/100p.
TEXT 1384 504 Left 2 !.model BZX84C10V2L ako:  BZX84C33VL bv=10.2
