Version 4
SHEET 1 2756 2104
WIRE 0 -656 -32 -656
WIRE 192 -656 0 -656
WIRE 336 -656 192 -656
WIRE 368 -656 336 -656
WIRE 192 -608 192 -656
WIRE 336 -608 336 -656
WIRE 192 -512 192 -528
WIRE 608 -512 192 -512
WIRE -352 -496 -432 -496
WIRE -432 -480 -432 -496
WIRE -192 -464 -192 -496
WIRE 192 -400 192 -512
WIRE 336 -352 336 -528
WIRE 336 -352 256 -352
WIRE 432 -352 336 -352
WIRE 432 -288 336 -288
WIRE 336 -208 336 -288
WIRE 0 -192 -304 -192
WIRE 112 -176 64 -176
WIRE 192 -176 192 -304
WIRE 0 -160 -176 -160
WIRE -176 -144 -176 -160
FLAG -432 -576 VCC
FLAG -432 -400 VEE
FLAG -352 -496 0
FLAG 32 -208 VCC
FLAG 32 -144 VEE
FLAG -176 -64 0
FLAG -304 -112 0
FLAG -192 -576 P3V3
FLAG -192 -464 0
FLAG 0 -656 P3V3
FLAG 336 -208 0
SYMBOL voltage -432 -592 R0
WINDOW 123 0 0 Left 0
WINDOW 39 0 0 Left 0
WINDOW 3 42 41 Left 2
SYMATTR Value 15
SYMATTR InstName V1
SYMBOL voltage -432 -496 R0
WINDOW 123 0 0 Left 0
WINDOW 39 0 0 Left 0
WINDOW 0 36 39 Left 2
SYMATTR InstName V4
SYMATTR Value 15
SYMBOL res 208 -192 R90
WINDOW 0 -50 81 VBottom 2
WINDOW 3 -43 67 VTop 2
SYMATTR InstName R1
SYMATTR Value 100k
SYMBOL Comparators\\LT1018 32 -176 R0
SYMATTR InstName U2
SYMBOL voltage -176 -160 R0
WINDOW 123 0 0 Left 0
WINDOW 39 0 0 Left 0
WINDOW 3 -352 132 Left 2
SYMATTR Value PULSE(-10 10 0 100n 100n 0.05ms 0.1ms 7)
SYMATTR InstName VIN2
SYMBOL voltage -304 -208 R0
WINDOW 123 0 0 Left 0
WINDOW 39 0 0 Left 0
WINDOW 3 60 54 Left 2
SYMATTR Value 1V
SYMATTR InstName VIN1
SYMBOL npn 256 -400 M0
SYMATTR InstName Q3
SYMATTR Value 2N3904
SYMBOL res 208 -512 R180
WINDOW 0 36 76 Left 2
WINDOW 3 36 40 Left 2
SYMATTR InstName R2
SYMATTR Value 100k
SYMBOL voltage -192 -592 R0
WINDOW 123 0 0 Left 0
WINDOW 39 0 0 Left 0
WINDOW 3 42 41 Left 2
SYMATTR Value 3.3V
SYMATTR InstName V2
SYMBOL res 352 -512 R180
WINDOW 0 36 76 Left 2
WINDOW 3 36 40 Left 2
SYMATTR InstName R3
SYMATTR Value 100k
SYMBOL diode 320 -352 R0
SYMATTR InstName D1
SYMBOL diode 448 -288 R180
WINDOW 0 24 64 Left 2
WINDOW 3 24 0 Left 2
SYMATTR InstName D2
TEXT -184 -288 Left 2 !.tran 1ms
TEXT 464 -632 Left 2 ;doesn't work
