Version 4
SHEET 1 2756 2104
WIRE 0 -656 -32 -656
WIRE 192 -656 0 -656
WIRE 368 -656 192 -656
WIRE 192 -608 192 -656
WIRE -672 -544 -752 -544
WIRE -752 -528 -752 -544
WIRE -512 -512 -512 -544
WIRE 192 -512 192 -528
WIRE 448 -512 192 -512
WIRE 448 -496 448 -512
WIRE 192 -464 192 -512
WIRE 288 -416 256 -416
WIRE 0 -192 -304 -192
WIRE 112 -176 64 -176
WIRE 192 -176 192 -368
WIRE 0 -160 -176 -160
WIRE -176 -144 -176 -160
FLAG -752 -624 VCC
FLAG -752 -448 VEE
FLAG -672 -544 0
FLAG 32 -208 VCC
FLAG 32 -144 VEE
FLAG -176 -64 0
FLAG -304 -112 0
FLAG 288 -416 0
FLAG -512 -624 P3V3
FLAG -512 -512 0
FLAG 0 -656 P3V3
SYMBOL voltage -752 -640 R0
WINDOW 123 0 0 Left 0
WINDOW 39 0 0 Left 0
WINDOW 3 42 41 Left 2
SYMATTR Value 15
SYMATTR InstName V1
SYMBOL voltage -752 -544 R0
WINDOW 123 0 0 Left 0
WINDOW 39 0 0 Left 0
WINDOW 0 36 39 Left 2
SYMATTR InstName V4
SYMATTR Value 15
SYMBOL res 208 -192 R90
WINDOW 0 -50 81 VBottom 2
WINDOW 3 -43 67 VTop 2
SYMATTR InstName R1
SYMATTR Value 100k
SYMBOL Comparators\\LT1018 32 -176 R0
SYMATTR InstName U2
SYMBOL voltage -176 -160 R0
WINDOW 123 0 0 Left 0
WINDOW 39 0 0 Left 0
WINDOW 3 -352 132 Left 2
SYMATTR Value PULSE(3.3 0 0 100n 100n 0.05ms 0.1ms 7)
SYMATTR InstName VIN2
SYMBOL voltage -304 -208 R0
WINDOW 123 0 0 Left 0
WINDOW 39 0 0 Left 0
WINDOW 3 60 54 Left 2
SYMATTR Value 1V
SYMATTR InstName VIN1
SYMBOL npn 256 -464 M0
SYMATTR InstName Q3
SYMBOL res 208 -512 R180
WINDOW 0 36 76 Left 2
WINDOW 3 36 40 Left 2
SYMATTR InstName R2
SYMATTR Value 100k
SYMBOL voltage -512 -640 R0
WINDOW 123 0 0 Left 0
WINDOW 39 0 0 Left 0
WINDOW 3 42 41 Left 2
SYMATTR Value 3.3V
SYMATTR InstName V2
TEXT -504 -336 Left 2 !.tran 1ms
