Version 4
SHEET 1 2756 2104
WIRE -464 -832 -512 -832
WIRE -368 -832 -384 -832
WIRE -368 -656 -368 -832
WIRE -352 -656 -368 -656
WIRE -256 -656 -272 -656
WIRE -592 -560 -752 -560
WIRE -448 -560 -592 -560
WIRE -368 -560 -368 -656
WIRE -352 -560 -368 -560
WIRE -256 -544 -256 -656
WIRE -256 -544 -288 -544
WIRE -192 -544 -256 -544
WIRE -352 -528 -368 -528
WIRE -592 -480 -752 -480
WIRE -192 -480 -192 -544
WIRE -192 -480 -592 -480
WIRE -368 -400 -368 -528
WIRE -608 -288 -688 -288
WIRE -688 -272 -688 -288
FLAG -688 -368 VCC
FLAG -688 -192 VEE
FLAG -608 -288 0
FLAG -320 -576 VCC
FLAG -320 -512 VEE
FLAG -368 -400 0
FLAG -592 -480 LO-SIDE
FLAG -592 -560 BOOT-DCV
FLAG -512 -752 0
SYMBOL voltage -688 -384 R0
WINDOW 123 0 0 Left 0
WINDOW 39 0 0 Left 0
WINDOW 3 42 41 Left 2
SYMATTR Value 15
SYMATTR InstName V1
SYMBOL voltage -688 -288 R0
WINDOW 123 0 0 Left 0
WINDOW 39 0 0 Left 0
WINDOW 0 36 39 Left 2
SYMATTR InstName V4
SYMATTR Value 15
SYMBOL OpAmps\\LT1006 -320 -608 R0
SYMATTR InstName U1
SYMBOL voltage -752 -576 R0
WINDOW 123 0 0 Left 0
WINDOW 39 0 0 Left 0
WINDOW 3 -19 -9 Left 2
WINDOW 0 -22 -38 Left 2
SYMATTR Value 20V
SYMATTR InstName V3
SYMBOL res -464 -544 R270
WINDOW 0 58 -14 VTop 2
WINDOW 3 87 38 VBottom 2
SYMATTR InstName R8
SYMATTR Value 50k
SYMBOL res -368 -640 R270
WINDOW 0 32 56 VTop 2
WINDOW 3 59 107 VBottom 2
SYMATTR InstName R9
SYMATTR Value 50k
SYMBOL voltage -512 -848 R0
WINDOW 123 0 0 Left 0
WINDOW 39 0 0 Left 0
WINDOW 3 -352 132 Left 2
WINDOW 0 -34 -31 Left 2
SYMATTR Value PULSE(-0.4 0.4 0 100n 100n 0.05ms 0.1ms 7)
SYMATTR InstName VIN1
SYMBOL res -480 -816 R270
WINDOW 0 54 50 VTop 2
WINDOW 3 59 107 VBottom 2
SYMATTR InstName R1
SYMATTR Value 50k
TEXT -552 -320 Left 2 !.tran 1ms
TEXT -368 -360 Left 2 ;amp,ADC ground
TEXT -264 -800 Left 2 ;- use 50k,50k,50k,   and 0.4V pertubation. for 20V range.\n- use +-8V for pertubation with 1k fb. for 'classic' range
