Version 4
SHEET 1 2756 1020
WIRE -384 16 -512 16
WIRE -256 16 -384 16
WIRE -176 16 -256 16
WIRE 0 16 -96 16
WIRE 80 16 0 16
WIRE 192 16 80 16
WIRE 336 16 288 16
WIRE 448 16 336 16
WIRE 528 16 448 16
WIRE 640 16 608 16
WIRE 800 16 640 16
WIRE 0 32 0 16
WIRE 336 32 336 16
WIRE 640 64 640 16
WIRE -80 80 -176 80
WIRE -176 128 -176 80
WIRE -160 128 -176 128
WIRE -80 144 -80 80
WIRE -80 144 -96 144
WIRE 0 144 0 96
WIRE 0 144 -80 144
WIRE 336 144 336 96
WIRE 336 144 0 144
WIRE 352 144 336 144
WIRE 448 144 448 16
WIRE -256 160 -256 16
WIRE -160 160 -176 160
WIRE 80 160 80 16
WIRE 224 192 224 64
WIRE 80 224 -16 224
WIRE 384 224 384 192
WIRE 384 304 80 304
WIRE 224 336 224 272
WIRE -544 368 -624 368
WIRE 384 448 384 304
WIRE 48 560 -96 560
WIRE 224 560 160 560
WIRE 272 560 224 560
WIRE 384 560 352 560
FLAG -96 640 0
FLAG 640 128 0
FLAG 384 624 0
FLAG -544 368 0
FLAG -624 288 P15V
FLAG -624 448 N15V
FLAG -128 112 P15V
FLAG -128 176 N15V
FLAG -384 80 0
FLAG -512 16 VIN
FLAG -16 304 0
SYMBOL voltage -96 544 R0
WINDOW 123 0 0 Left 0
WINDOW 39 0 0 Left 0
WINDOW 3 -352 132 Left 2
SYMATTR Value PULSE(5 0 0 100n 100n 0.02ms 0.04ms 300)
SYMATTR InstName VIN1
SYMBOL njf 288 64 M270
WINDOW 0 116 96 VLeft 2
WINDOW 3 83 98 VLeft 2
SYMATTR InstName J1
SYMATTR Value J201
SYMBOL res 624 0 R90
WINDOW 0 0 56 VBottom 2
WINDOW 3 32 56 VTop 2
SYMATTR InstName R2
SYMATTR Value 2k
SYMBOL cap 624 64 R0
SYMATTR InstName C1
SYMATTR Value 100p
SYMBOL res 96 320 R180
WINDOW 0 36 76 Left 2
WINDOW 3 36 40 Left 2
SYMATTR InstName R3
SYMATTR Value 10k
SYMBOL cap 64 160 R0
SYMATTR InstName C2
SYMATTR Value 1.08p
SYMBOL res 240 288 R180
WINDOW 0 36 76 Left 2
WINDOW 3 36 40 Left 2
SYMATTR InstName R4
SYMATTR Value 10k
SYMBOL cap 368 560 R0
SYMATTR InstName C3
SYMATTR Value 22p
SYMBOL 74hc14 176 400 R270
SYMATTR InstName U4
SYMBOL 74hc14 176 512 R270
SYMATTR InstName U1
SYMBOL 74hc14 336 512 R270
SYMATTR InstName U2
SYMBOL 74hc14 96 512 R0
SYMATTR InstName U3
SYMBOL res 400 320 R180
WINDOW 0 36 76 Left 2
WINDOW 3 36 40 Left 2
SYMATTR InstName R6
SYMATTR Value 10k
SYMBOL njf 448 192 M270
WINDOW 0 34 -15 VLeft 2
WINDOW 3 -6 4 VLeft 2
SYMATTR InstName J2
SYMATTR Value J201
SYMBOL OpAmps\\ADA4625 -128 80 R0
WINDOW 3 -153 152 Left 2
SYMATTR InstName U5
SYMBOL cap -16 32 R0
SYMATTR InstName C4
SYMATTR Value 47p
SYMBOL res -160 144 R90
WINDOW 0 0 56 VBottom 2
WINDOW 3 32 56 VTop 2
SYMATTR InstName R7
SYMATTR Value 10k
SYMBOL voltage -624 272 R0
WINDOW 123 0 0 Left 0
WINDOW 39 0 0 Left 0
WINDOW 0 36 39 Left 2
SYMATTR InstName V1
SYMATTR Value 15
SYMBOL voltage -624 352 R0
WINDOW 123 0 0 Left 0
WINDOW 39 0 0 Left 0
WINDOW 0 36 39 Left 2
SYMATTR InstName V3
SYMATTR Value 15
SYMBOL cap 320 32 R0
SYMATTR InstName C5
SYMATTR Value 47p
SYMBOL res -80 0 R90
WINDOW 0 0 56 VBottom 2
WINDOW 3 32 56 VTop 2
SYMATTR InstName R8
SYMATTR Value 2k
SYMBOL res 256 576 R270
WINDOW 0 32 56 VTop 2
WINDOW 3 0 56 VBottom 2
SYMATTR InstName R5
SYMATTR Value 650R
SYMBOL cap -400 16 R0
SYMATTR InstName C6
SYMATTR Value 100p
SYMBOL res 0 320 R180
WINDOW 0 36 76 Left 2
WINDOW 3 36 40 Left 2
SYMATTR InstName R1
SYMATTR Value 10k
TEXT -536 -248 Left 2 !.tran 500us
TEXT -544 -208 Left 2 !.include 74hc.lib
TEXT -480 -72 Left 2 ;0.54p flat\n1.08p with 10k/10k divider
TEXT -784 0 Left 2 !.ic V(VIN)=5
TEXT 648 552 Left 2 ;800R/22p aligns the signal switch on, with precharge switch off.at 2.5V.\n520R/22p  align signal switch off, precharge switch on\n650R/22p  splits the difference.
