Version 4
SHEET 1 2584 680
WIRE -64 32 -144 32
WIRE -144 48 -144 32
WIRE -64 48 -64 32
WIRE 2032 48 1968 48
WIRE 1280 64 1216 64
WIRE 2208 64 2096 64
WIRE 2320 64 2208 64
WIRE 2336 64 2320 64
WIRE 384 80 320 80
WIRE 1488 80 1344 80
WIRE 1568 80 1488 80
WIRE 1584 80 1568 80
WIRE 2032 80 1792 80
WIRE 592 96 448 96
WIRE 672 96 592 96
WIRE 688 96 672 96
WIRE 1280 96 1040 96
WIRE 1792 96 1792 80
WIRE 384 112 176 112
WIRE 1040 112 1040 96
WIRE 176 128 176 112
WIRE 1968 144 1968 48
WIRE 2320 144 1968 144
WIRE 2352 144 2320 144
WIRE 1216 160 1216 64
WIRE 1488 160 1216 160
WIRE 320 176 320 80
WIRE 592 176 320 176
WIRE 2208 208 2208 64
WIRE 1488 240 1216 240
WIRE 592 256 320 256
WIRE 2208 288 1968 288
WIRE 1216 304 1216 240
WIRE 1280 304 1216 304
WIRE 320 320 320 256
WIRE 384 320 320 320
WIRE 1488 320 1344 320
WIRE 1568 320 1488 320
WIRE 1616 320 1568 320
WIRE 592 336 448 336
WIRE 704 336 592 336
WIRE 784 336 704 336
WIRE 1280 336 1136 336
WIRE 384 352 240 352
WIRE 1968 352 1968 288
WIRE 2032 352 1968 352
WIRE 2208 368 2096 368
WIRE 2288 368 2208 368
WIRE 2032 384 1888 384
FLAG 176 208 0
FLAG -64 48 0
FLAG 672 96 VOUT
FLAG -144 -48 VCC
FLAG 416 64 VCC
FLAG -144 128 VEE
FLAG 416 128 VEE
FLAG 416 304 VCC
FLAG 416 368 VEE
FLAG 704 336 VMIN
FLAG 240 352 0
FLAG 1040 192 0
FLAG 1568 80 VOUT2
FLAG 1312 48 VCC
FLAG 1312 112 VEE
FLAG 1312 288 VCC
FLAG 1312 352 VEE
FLAG 1568 320 VMIN2
FLAG 1136 336 0
FLAG 1792 176 0
FLAG 2320 64 VOUT3
FLAG 2064 32 VCC
FLAG 2064 96 VEE
FLAG 2064 336 VCC
FLAG 2064 400 VEE
FLAG 2288 368 VMIN3
FLAG 1888 384 0
FLAG 2320 224 0
SYMBOL voltage 176 112 R0
WINDOW 123 0 0 Left 0
WINDOW 39 0 0 Left 0
WINDOW 3 24 44 Left 2
SYMATTR Value SINE(7.1 0.1 50)
SYMATTR InstName VIN
SYMBOL voltage -144 -64 R0
WINDOW 123 0 0 Left 0
WINDOW 39 0 0 Left 0
WINDOW 3 38 43 Left 2
SYMATTR Value 15
SYMATTR InstName V2
SYMBOL voltage -144 32 R0
WINDOW 123 0 0 Left 0
WINDOW 39 0 0 Left 0
WINDOW 0 36 39 Left 2
SYMATTR InstName V3
SYMATTR Value 15
SYMBOL res 608 192 R180
WINDOW 0 36 76 Left 2
WINDOW 3 36 40 Left 2
SYMATTR InstName R2
SYMATTR Value 2k
SYMBOL res 608 352 R180
WINDOW 0 36 76 Left 2
WINDOW 3 36 40 Left 2
SYMATTR InstName R3
SYMATTR Value 7k
SYMBOL OpAmps\\OP27 416 32 R0
SYMATTR InstName U2
SYMBOL OpAmps\\OP27 416 272 R0
SYMATTR InstName U1
SYMBOL res 608 272 R180
WINDOW 0 36 76 Left 2
WINDOW 3 36 40 Left 2
SYMATTR InstName R1
SYMATTR Value 5k
SYMBOL voltage 1040 96 R0
WINDOW 123 0 0 Left 0
WINDOW 39 0 0 Left 0
WINDOW 3 24 44 Left 2
SYMATTR Value SINE(7.1 0.1 50)
SYMATTR InstName VIN1
SYMBOL res 1504 176 R180
WINDOW 0 36 76 Left 2
WINDOW 3 36 40 Left 2
SYMATTR InstName R4
SYMATTR Value 20k
SYMBOL res 1504 336 R180
WINDOW 0 36 76 Left 2
WINDOW 3 36 40 Left 2
SYMATTR InstName R5
SYMATTR Value 50k
SYMBOL OpAmps\\OP27 1312 16 R0
SYMATTR InstName U3
SYMBOL OpAmps\\OP27 1312 256 R0
SYMATTR InstName U4
SYMBOL res 1504 256 R180
WINDOW 0 36 76 Left 2
WINDOW 3 36 40 Left 2
SYMATTR InstName R6
SYMATTR Value 30k
SYMBOL voltage 1792 80 R0
WINDOW 123 0 0 Left 0
WINDOW 39 0 0 Left 0
WINDOW 3 24 44 Left 2
SYMATTR Value SINE(7.1 0.1 50)
SYMATTR InstName VIN2
SYMBOL res 2336 160 R180
WINDOW 0 36 76 Left 2
WINDOW 3 36 40 Left 2
SYMATTR InstName R7
SYMATTR Value 4.1k
SYMBOL res 2224 384 R180
WINDOW 0 36 76 Left 2
WINDOW 3 36 40 Left 2
SYMATTR InstName R8
SYMATTR Value 10k
SYMBOL OpAmps\\OP27 2064 0 R0
SYMATTR InstName U5
SYMBOL OpAmps\\OP27 2064 304 R0
SYMATTR InstName U6
SYMBOL res 2224 304 R180
WINDOW 0 36 76 Left 2
WINDOW 3 36 40 Left 2
SYMATTR InstName R9
SYMATTR Value 10k
SYMBOL res 2336 240 R180
WINDOW 0 36 76 Left 2
WINDOW 3 36 40 Left 2
SYMATTR InstName R10
SYMATTR Value 6k
TEXT -72 264 Left 2 !;dc V1 0 10 0.01
TEXT -8 352 Left 2 !.tran 0.1
TEXT 600 -8 Left 2 ;+-10V.
TEXT 1496 -24 Left 2 ;+-12V.
TEXT 1512 128 Left 2 ;2 10k series.
TEXT 1416 -80 Left 2 ;ratio 2,3,5 gives 12V
TEXT 1752 496 Left 2 ;critical running bottom as inverting divider is better,\noutput is always symmetrical, according to invert resistors.\nwhile gain is less sensitive.\n- issue is the extra gnd that needs to sink buffered. or gnd current comp\n- see R100.
TEXT 2104 -24 Left 2 ;+-12V.
